LIG(A-306)
  -OEChem-06042511413D

 58 61  0     1  0  0  0  0  0999 V2000
   13.9791   -1.8310   21.3707 Cl  0  0  0  0  0  0  0  0  0  0  0  0
   12.8373   -0.8771   22.2807 C   0  0  0  0  0  0  0  0  0  0  0  0
   11.4937   -1.1798   22.1964 C   0  0  0  0  0  0  0  0  0  0  0  0
   13.3006    0.1188   23.1056 C   0  0  0  0  0  0  0  0  0  0  0  0
   12.4012    0.7958   23.9092 C   0  0  0  0  0  0  0  0  0  0  0  0
   11.0396    0.5018   23.8759 C   0  0  0  0  0  0  0  0  0  0  0  0
   10.1443    1.2078   24.8726 C   0  0  0  0  0  0  0  0  0  0  0  0
    8.7118    0.9860   24.6348 N   0  0  3  0  0  0  0  0  0  0  0  0
    7.5340    1.9703   25.0899 S   0  0  0  0  0  0  0  0  0  0  0  0
    7.6917    2.1780   26.4870 O   0  0  0  0  0  0  0  0  0  0  0  0
    6.3128    1.4686   24.5626 O   0  0  0  0  0  0  0  0  0  0  0  0
    7.8857    3.3353   24.3447 N   0  0  3  0  0  0  0  0  0  0  0  0
    7.4668    3.4942   22.9495 C   0  0  0  0  0  0  0  0  0  0  0  0
    8.5184    4.5309   24.9476 C   0  0  0  0  0  0  0  0  0  0  0  0
    7.5599    5.6820   25.1465 C   0  0  0  0  0  0  0  0  0  0  0  0
    6.7626    5.4291   26.2794 O   0  0  0  0  0  0  0  0  0  0  0  0
    7.1176    6.2558   27.3725 C   0  0  0  0  0  0  0  0  0  0  0  0
   10.5773   -0.4797   22.9841 C   0  0  0  0  0  0  0  0  0  0  0  0
    9.0907   -0.7358   22.8311 C   0  0  1  0  0  0  0  0  0  0  0  0
    8.3408   -0.3365   24.0992 C   0  0  0  0  0  0  0  0  0  0  0  0
    8.5711    0.0105   21.6009 C   0  0  0  0  0  0  0  0  0  0  0  0
    9.1441    0.9976   21.1457 O   0  0  0  0  0  0  0  0  0  0  0  0
    7.4359   -0.4994   21.0705 N   0  0  0  0  0  0  0  0  0  0  0  0
    6.7117   -0.0243   19.9580 C   0  0  0  0  0  0  0  0  0  0  0  0
    5.5625    0.7930   20.1913 C   0  0  0  0  0  0  0  0  0  0  0  0
    5.0755    1.1206   21.4831 C   0  0  0  0  0  0  0  0  0  0  0  0
    3.9832    1.9252   21.6403 C   0  0  0  0  0  0  0  0  0  0  0  0
    3.3201    2.4421   20.5350 C   0  0  0  0  0  0  0  0  0  0  0  0
    3.7482    2.1555   19.2705 C   0  0  0  0  0  0  0  0  0  0  0  0
    4.8774    1.3261   19.0621 C   0  0  0  0  0  0  0  0  0  0  0  0
    5.3785    1.0055   17.7774 C   0  0  0  0  0  0  0  0  0  0  0  0
    6.4408    0.2413   17.5594 N   0  0  0  0  0  0  0  0  0  0  0  0
    7.0780   -0.2514   18.6308 C   0  0  0  0  0  0  0  0  0  0  0  0
   11.1526   -1.9539   21.5250 H   0  0  0  0  0  0  0  0  0  0  0  0
   14.3510    0.3694   23.1264 H   0  0  0  0  0  0  0  0  0  0  0  0
   12.7610    1.5665   24.5748 H   0  0  0  0  0  0  0  0  0  0  0  0
   10.3902    0.8428   25.8808 H   0  0  0  0  0  0  0  0  0  0  0  0
   10.3435    2.2881   24.8151 H   0  0  0  0  0  0  0  0  0  0  0  0
    7.7817    4.4820   22.5818 H   0  0  0  0  0  0  0  0  0  0  0  0
    7.9321    2.7090   22.3354 H   0  0  0  0  0  0  0  0  0  0  0  0
    6.3720    3.4106   22.8838 H   0  0  0  0  0  0  0  0  0  0  0  0
    8.9331    4.2495   25.9268 H   0  0  0  0  0  0  0  0  0  0  0  0
    9.3321    4.8651   24.2871 H   0  0  0  0  0  0  0  0  0  0  0  0
    8.1278    6.6122   25.2962 H   0  0  0  0  0  0  0  0  0  0  0  0
    6.9174    5.7835   24.2594 H   0  0  0  0  0  0  0  0  0  0  0  0
    6.4716    6.0250   28.2324 H   0  0  0  0  0  0  0  0  0  0  0  0
    8.1679    6.0738   27.6438 H   0  0  0  0  0  0  0  0  0  0  0  0
    6.9893    7.3113   27.0906 H   0  0  0  0  0  0  0  0  0  0  0  0
    8.9402   -1.8130   22.6676 H   0  0  0  0  0  0  0  0  0  0  0  0
    8.5467   -1.0910   24.8727 H   0  0  0  0  0  0  0  0  0  0  0  0
    7.2642   -0.3269   23.8738 H   0  0  0  0  0  0  0  0  0  0  0  0
    7.0657   -1.3113   21.5221 H   0  0  0  0  0  0  0  0  0  0  0  0
    5.5763    0.7276   22.3555 H   0  0  0  0  0  0  0  0  0  0  0  0
    3.6317    2.1617   22.6338 H   0  0  0  0  0  0  0  0  0  0  0  0
    2.4578    3.0767   20.6769 H   0  0  0  0  0  0  0  0  0  0  0  0
    3.2212    2.5650   18.4214 H   0  0  0  0  0  0  0  0  0  0  0  0
    4.8623    1.4093   16.9190 H   0  0  0  0  0  0  0  0  0  0  0  0
    7.9429   -0.8732   18.4528 H   0  0  0  0  0  0  0  0  0  0  0  0
  1  2  1  0  0  0  0
  2  3  2  0  0  0  0
  2  4  1  0  0  0  0
  3 18  1  0  0  0  0
  3 34  1  0  0  0  0
  4  5  2  0  0  0  0
  4 35  1  0  0  0  0
  5  6  1  0  0  0  0
  5 36  1  0  0  0  0
  6  7  1  0  0  0  0
  6 18  2  0  0  0  0
  7  8  1  0  0  0  0
  7 37  1  0  0  0  0
  7 38  1  0  0  0  0
  8  9  1  0  0  0  0
  8 20  1  0  0  0  0
  9 10  2  0  0  0  0
  9 11  2  0  0  0  0
  9 12  1  0  0  0  0
 12 13  1  0  0  0  0
 12 14  1  0  0  0  0
 13 39  1  0  0  0  0
 13 40  1  0  0  0  0
 13 41  1  0  0  0  0
 14 15  1  0  0  0  0
 14 42  1  0  0  0  0
 14 43  1  0  0  0  0
 15 16  1  0  0  0  0
 15 44  1  0  0  0  0
 15 45  1  0  0  0  0
 16 17  1  0  0  0  0
 17 46  1  0  0  0  0
 17 47  1  0  0  0  0
 17 48  1  0  0  0  0
 18 19  1  0  0  0  0
 19 20  1  0  0  0  0
 19 21  1  0  0  0  0
 19 49  1  0  0  0  0
 20 50  1  0  0  0  0
 20 51  1  0  0  0  0
 21 22  2  0  0  0  0
 21 23  1  0  0  0  0
 23 24  1  0  0  0  0
 23 52  1  0  0  0  0
 24 25  2  0  0  0  0
 24 33  1  0  0  0  0
 25 26  1  0  0  0  0
 25 30  1  0  0  0  0
 26 27  2  0  0  0  0
 26 53  1  0  0  0  0
 27 28  1  0  0  0  0
 27 54  1  0  0  0  0
 28 29  2  0  0  0  0
 28 55  1  0  0  0  0
 29 30  1  0  0  0  0
 29 56  1  0  0  0  0
 30 31  2  0  0  0  0
 31 32  1  0  0  0  0
 31 57  1  0  0  0  0
 32 33  2  0  0  0  0
 33 58  1  0  0  0  0
M  END
> <compound_name>
MAT-POS-5cd9ea36-22

> <provenance>
{"isomeric_smiles": "CN(CCOC)S(=O)(=O)N1Cc2ccc(cc2[C@@H](C1)C(=O)Nc3cncc4c3cccc4)Cl", "inchi": "InChI=1S/C23H25ClN4O4S/c1-27(9-10-32-2)33(30,31)28-14-17-7-8-18(24)11-20(17)21(15-28)23(29)26-22-13-25-12-16-5-3-4-6-19(16)22/h3-8,11-13,21H,9-10,14-15H2,1-2H3,(H,26,29)/t21-/m1/s1", "inchi_key": "WMOVBRSKQFDZDB-OAQYLSRUSA-N", "fixed_inchi": "InChI=1/C23H25ClN4O4S/c1-27(9-10-32-2)33(30,31)28-14-17-7-8-18(24)11-20(17)21(15-28)23(29)26-22-13-25-12-16-5-3-4-6-19(16)22/h3-8,11-13,21H,9-10,14-15H2,1-2H3,(H,26,29)/t21-/m1/s1/f/h26H", "fixed_inchikey": "WMOVBRSKQFDZDB-GECCEJMXNA-N"}

> <data_format>
sdf

$$$$
