LIG(A-305)
  -OEChem-06042511313D

 35 36  0     1  0  0  0  0  0999 V2000
   14.3367   -1.8991   20.4285 N   0  0  0  0  0  0  0  0  0  0  0  0
   13.6327   -1.4831   21.2265 C   0  0  0  0  0  0  0  0  0  0  0  0
   12.7056   -0.9772   22.2076 C   0  0  0  0  0  0  0  0  0  0  0  0
   13.1386   -0.0972   23.1976 C   0  0  0  0  0  0  0  0  0  0  0  0
   12.2196    0.4507   24.0796 C   0  0  0  0  0  0  0  0  0  0  0  0
   10.8706    0.1517   23.9536 C   0  0  0  0  0  0  0  0  0  0  0  0
   11.3557   -1.3052   22.1095 C   0  0  0  0  0  0  0  0  0  0  0  0
   10.4256   -0.7273   22.9686 C   0  0  0  0  0  0  0  0  0  0  0  0
    8.9456   -1.0453   22.7915 C   0  0  1  0  0  0  0  0  0  0  0  0
    8.1236   -0.8414   24.0705 C   0  0  0  0  0  0  0  0  0  0  0  0
    8.4616   -0.2033   21.6076 C   0  0  0  0  0  0  0  0  0  0  0  0
    9.1116    0.7457   21.1796 O   0  0  0  0  0  0  0  0  0  0  0  0
    7.2796   -0.5763   21.0796 N   0  0  0  0  0  0  0  0  0  0  0  0
    6.6636    0.0987   20.0116 C   0  0  0  0  0  0  0  0  0  0  0  0
    5.5046    0.8586   20.2356 C   0  0  0  0  0  0  0  0  0  0  0  0
    4.9946    1.1536   21.6246 C   0  0  0  0  0  0  0  0  0  0  0  0
    4.8666    1.3827   19.1216 C   0  0  0  0  0  0  0  0  0  0  0  0
    5.3996    1.1647   17.8666 C   0  0  0  0  0  0  0  0  0  0  0  0
    6.5346    0.4848   17.6506 N   0  0  0  0  0  0  0  0  0  0  0  0
    7.1516   -0.0352   18.7126 C   0  0  0  0  0  0  0  0  0  0  0  0
   14.1852    0.1568   23.2775 H   0  0  0  0  0  0  0  0  0  0  0  0
   12.5544    1.1112   24.8658 H   0  0  0  0  0  0  0  0  0  0  0  0
   10.1578    0.6052   24.6264 H   0  0  0  0  0  0  0  0  0  0  0  0
   11.0284   -2.0127   21.3620 H   0  0  0  0  0  0  0  0  0  0  0  0
    8.8613   -2.1041   22.5056 H   0  0  0  0  0  0  0  0  0  0  0  0
    7.0699   -1.0877   23.8729 H   0  0  0  0  0  0  0  0  0  0  0  0
    8.5110   -1.4978   24.8637 H   0  0  0  0  0  0  0  0  0  0  0  0
    8.2008    0.2076   24.3925 H   0  0  0  0  0  0  0  0  0  0  0  0
    6.8172   -1.3738   21.4670 H   0  0  0  0  0  0  0  0  0  0  0  0
    5.7612    1.7063   22.1876 H   0  0  0  0  0  0  0  0  0  0  0  0
    4.0798    1.7607   21.5580 H   0  0  0  0  0  0  0  0  0  0  0  0
    4.7706    0.2086   22.1412 H   0  0  0  0  0  0  0  0  0  0  0  0
    3.9591    1.9572   19.2348 H   0  0  0  0  0  0  0  0  0  0  0  0
    4.8733    1.5640   17.0122 H   0  0  0  0  0  0  0  0  0  0  0  0
    8.0691   -0.5839   18.5596 H   0  0  0  0  0  0  0  0  0  0  0  0
  1  2  3  0  0  0  0
  2  3  1  0  0  0  0
  3  4  2  0  0  0  0
  3  7  1  0  0  0  0
  4  5  1  0  0  0  0
  4 21  1  0  0  0  0
  5  6  2  0  0  0  0
  5 22  1  0  0  0  0
  6  8  1  0  0  0  0
  6 23  1  0  0  0  0
  7  8  2  0  0  0  0
  7 24  1  0  0  0  0
  8  9  1  0  0  0  0
  9 10  1  0  0  0  0
  9 11  1  0  0  0  0
  9 25  1  0  0  0  0
 10 26  1  0  0  0  0
 10 27  1  0  0  0  0
 10 28  1  0  0  0  0
 11 12  2  0  0  0  0
 11 13  1  0  0  0  0
 13 14  1  0  0  0  0
 13 29  1  0  0  0  0
 14 15  2  0  0  0  0
 14 20  1  0  0  0  0
 15 16  1  0  0  0  0
 15 17  1  0  0  0  0
 16 30  1  0  0  0  0
 16 31  1  0  0  0  0
 16 32  1  0  0  0  0
 17 18  2  0  0  0  0
 17 33  1  0  0  0  0
 18 19  1  0  0  0  0
 18 34  1  0  0  0  0
 19 20  2  0  0  0  0
 20 35  1  0  0  0  0
M  END
> <compound_name>
TRY-UNI-714a760b-22

> <provenance>
{"isomeric_smiles": "Cc1ccncc1NC(=O)[C@H](C)c2cccc(c2)C#N", "inchi": "InChI=1S/C16H15N3O/c1-11-6-7-18-10-15(11)19-16(20)12(2)14-5-3-4-13(8-14)9-17/h3-8,10,12H,1-2H3,(H,19,20)/t12-/m1/s1", "inchi_key": "QZIZMNNUMXCPSV-GFCCVEGCSA-N", "fixed_inchi": "InChI=1/C16H15N3O/c1-11-6-7-18-10-15(11)19-16(20)12(2)14-5-3-4-13(8-14)9-17/h3-8,10,12H,1-2H3,(H,19,20)/t12-/m1/s1/f/h19H", "fixed_inchikey": "QZIZMNNUMXCPSV-NMUGNXQVNA-N"}

> <data_format>
sdf

$$$$
