LIG(A-306)
  -OEChem-06042511433D

 59 63  0     1  0  0  0  0  0999 V2000
    9.5229    1.5822   21.3724 O   0  0  0  0  0  0  0  0  0  0  0  0
    9.1256    0.5139   21.8032 C   0  0  0  0  0  0  0  0  0  0  0  0
    8.0759   -0.1983   21.3089 N   0  0  0  0  0  0  0  0  0  0  0  0
    7.2215    0.2209   20.2333 C   0  0  0  0  0  0  0  0  0  0  0  0
    6.0943    1.0305   20.4337 C   0  0  0  0  0  0  0  0  0  0  0  0
    5.7740    1.5833   21.8045 C   0  0  0  0  0  0  0  0  0  0  0  0
    4.3572    2.1259   21.9187 C   0  0  0  0  0  0  0  0  0  0  0  0
    4.0118    3.0046   20.7272 C   0  0  0  0  0  0  0  0  0  0  0  0
    4.0756    2.2149   19.4402 C   0  0  0  0  0  0  0  0  0  0  0  0
    5.3237    1.3758   19.3096 C   0  0  0  0  0  0  0  0  0  0  0  0
    5.7423    0.9190   18.0742 C   0  0  0  0  0  0  0  0  0  0  0  0
    6.8276    0.1676   17.8681 N   0  0  0  0  0  0  0  0  0  0  0  0
    7.5442   -0.1813   18.9422 C   0  0  0  0  0  0  0  0  0  0  0  0
    7.9282   -1.5182   21.9504 C   0  0  0  0  0  0  0  0  0  0  0  0
    9.2470   -1.7078   22.6961 C   0  0  0  0  0  0  0  0  0  0  0  0
    9.7243   -0.2643   22.9811 C   0  0  1  0  0  0  0  0  0  0  0  0
   11.2476   -0.1149   23.0284 C   0  0  0  0  0  0  0  0  0  0  0  0
   12.0557   -0.8604   22.1684 C   0  0  0  0  0  0  0  0  0  0  0  0
   13.3984   -0.5508   22.0615 C   0  0  0  0  0  0  0  0  0  0  0  0
   14.3651   -1.3871   20.8741 Cl  0  0  0  0  0  0  0  0  0  0  0  0
   13.9738    0.4471   22.8223 C   0  0  0  0  0  0  0  0  0  0  0  0
   13.1847    1.1494   23.7151 C   0  0  0  0  0  0  0  0  0  0  0  0
   11.8201    0.8808   23.8352 C   0  0  0  0  0  0  0  0  0  0  0  0
   10.9921    1.6487   24.8453 C   0  0  0  0  0  0  0  0  0  0  0  0
    9.0640    0.3278   24.2553 C   0  0  0  0  0  0  0  0  0  0  0  0
    9.5621    1.6836   24.4909 N   0  3  1  0  0  0  0  0  0  0  0  0
    8.7681    2.4787   25.4281 C   0  0  0  0  0  0  0  0  0  0  0  0
    7.7781    3.4351   24.7772 C   0  0  0  0  0  0  0  0  0  0  0  0
    6.6355    3.5585   25.2142 O   0  0  0  0  0  0  0  0  0  0  0  0
    8.2112    4.1174   23.7254 N   0  0  0  0  0  0  0  0  0  0  0  0
    7.3459    5.0001   22.9651 C   0  0  0  0  0  0  0  0  0  0  0  0
    5.9002    0.7787   22.5438 H   0  0  0  0  0  0  0  0  0  0  0  0
    6.4789    2.3984   22.0257 H   0  0  0  0  0  0  0  0  0  0  0  0
    3.6517    1.2831   21.9604 H   0  0  0  0  0  0  0  0  0  0  0  0
    4.2730    2.7205   22.8403 H   0  0  0  0  0  0  0  0  0  0  0  0
    2.9944    3.4027   20.8558 H   0  0  0  0  0  0  0  0  0  0  0  0
    4.7276    3.8381   20.6745 H   0  0  0  0  0  0  0  0  0  0  0  0
    3.2018    1.5481   19.3971 H   0  0  0  0  0  0  0  0  0  0  0  0
    4.0405    2.9202   18.5968 H   0  0  0  0  0  0  0  0  0  0  0  0
    5.1491    1.1890   17.2130 H   0  0  0  0  0  0  0  0  0  0  0  0
    8.4143   -0.8050   18.7998 H   0  0  0  0  0  0  0  0  0  0  0  0
    7.0785   -1.5219   22.6491 H   0  0  0  0  0  0  0  0  0  0  0  0
    7.7867   -2.3069   21.1968 H   0  0  0  0  0  0  0  0  0  0  0  0
    9.0903   -2.2606   23.6341 H   0  0  0  0  0  0  0  0  0  0  0  0
    9.9760   -2.2448   22.0715 H   0  0  0  0  0  0  0  0  0  0  0  0
   11.6357   -1.6714   21.5920 H   0  0  0  0  0  0  0  0  0  0  0  0
   15.0245    0.6760   22.7219 H   0  0  0  0  0  0  0  0  0  0  0  0
   13.6312    1.9177   24.3289 H   0  0  0  0  0  0  0  0  0  0  0  0
   11.1005    1.1682   25.8289 H   0  0  0  0  0  0  0  0  0  0  0  0
   11.3680    2.6811   24.8982 H   0  0  0  0  0  0  0  0  0  0  0  0
    7.9728    0.3587   24.1198 H   0  0  0  0  0  0  0  0  0  0  0  0
    9.3083   -0.3058   25.1206 H   0  0  0  0  0  0  0  0  0  0  0  0
    9.5077    2.1559   23.6112 H   0  0  0  0  0  0  0  0  0  0  0  0
    8.2034    1.7869   26.0705 H   0  0  0  0  0  0  0  0  0  0  0  0
    9.4598    3.0706   26.0457 H   0  0  0  0  0  0  0  0  0  0  0  0
    9.1667    4.0202   23.4469 H   0  0  0  0  0  0  0  0  0  0  0  0
    7.9175    5.4562   22.1433 H   0  0  0  0  0  0  0  0  0  0  0  0
    6.5060    4.4229   22.5512 H   0  0  0  0  0  0  0  0  0  0  0  0
    6.9580    5.7905   23.6245 H   0  0  0  0  0  0  0  0  0  0  0  0
  1  2  2  0  0  0  0
  2  3  1  0  0  0  0
  2 16  1  0  0  0  0
  3  4  1  0  0  0  0
  3 14  1  0  0  0  0
  4  5  2  0  0  0  0
  4 13  1  0  0  0  0
  5  6  1  0  0  0  0
  5 10  1  0  0  0  0
  6  7  1  0  0  0  0
  6 32  1  0  0  0  0
  6 33  1  0  0  0  0
  7  8  1  0  0  0  0
  7 34  1  0  0  0  0
  7 35  1  0  0  0  0
  8  9  1  0  0  0  0
  8 36  1  0  0  0  0
  8 37  1  0  0  0  0
  9 10  1  0  0  0  0
  9 38  1  0  0  0  0
  9 39  1  0  0  0  0
 10 11  2  0  0  0  0
 11 12  1  0  0  0  0
 11 40  1  0  0  0  0
 12 13  2  0  0  0  0
 13 41  1  0  0  0  0
 14 15  1  0  0  0  0
 14 42  1  0  0  0  0
 14 43  1  0  0  0  0
 15 16  1  0  0  0  0
 15 44  1  0  0  0  0
 15 45  1  0  0  0  0
 16 17  1  0  0  0  0
 16 25  1  0  0  0  0
 17 18  2  0  0  0  0
 17 23  1  0  0  0  0
 18 19  1  0  0  0  0
 18 46  1  0  0  0  0
 19 20  1  0  0  0  0
 19 21  2  0  0  0  0
 21 22  1  0  0  0  0
 21 47  1  0  0  0  0
 22 23  2  0  0  0  0
 22 48  1  0  0  0  0
 23 24  1  0  0  0  0
 24 26  1  0  0  0  0
 24 49  1  0  0  0  0
 24 50  1  0  0  0  0
 25 26  1  0  0  0  0
 25 51  1  0  0  0  0
 25 52  1  0  0  0  0
 26 27  1  0  0  0  0
 26 53  1  0  0  0  0
 27 28  1  0  0  0  0
 27 54  1  0  0  0  0
 27 55  1  0  0  0  0
 28 29  2  0  0  0  0
 28 30  1  0  0  0  0
 30 31  1  0  0  0  0
 30 56  1  0  0  0  0
 31 57  1  0  0  0  0
 31 58  1  0  0  0  0
 31 59  1  0  0  0  0
M  CHG  1  26   1
M  END
> <compound_name>
EDJ-MED-705e09b8-1

> <provenance>
{"isomeric_smiles": "CNC(=O)C[N@H+]1Cc2ccc(cc2[C@]3(C1)CCN(C3=O)c4cncc5c4CCCC5)Cl", "inchi": "InChI=1S/C24H27ClN4O2/c1-26-22(30)14-28-13-17-6-7-18(25)10-20(17)24(15-28)8-9-29(23(24)31)21-12-27-11-16-4-2-3-5-19(16)21/h6-7,10-12H,2-5,8-9,13-15H2,1H3,(H,26,30)/p+1/t24-/m1/s1", "inchi_key": "HGSRDUTVEZMNMN-XMMPIXPASA-O", "fixed_inchi": "InChI=1/C24H27ClN4O2/c1-26-22(30)14-28-13-17-6-7-18(25)10-20(17)24(15-28)8-9-29(23(24)31)21-12-27-11-16-4-2-3-5-19(16)21/h6-7,10-12H,2-5,8-9,13-15H2,1H3,(H,26,30)/p+1/t24-/m1/s1/fC24H28ClN4O2/h26,28H/q+1", "fixed_inchikey": "HGSRDUTVEZMNMN-CAOQODPHNA-O"}

> <data_format>
sdf

$$$$
