LIG(A-306)
  -OEChem-06042511393D

 50 54  0     1  0  0  0  0  0999 V2000
    7.3649    2.3968   25.7234 O   0  0  0  0  0  0  0  0  0  0  0  0
    6.9078    1.0888   25.3624 S   0  0  0  0  0  0  0  0  0  0  0  0
    5.7108    0.9368   24.5955 O   0  0  0  0  0  0  0  0  0  0  0  0
    6.8299    0.1608   26.7814 C   0  0  0  0  0  0  0  0  0  0  0  0
    6.1690   -1.0002   26.9694 N   0  0  0  0  0  0  0  0  0  0  0  0
    6.4261   -1.4212   28.2424 C   0  0  0  0  0  0  0  0  0  0  0  0
    7.2401   -0.4823   28.7874 C   0  0  0  0  0  0  0  0  0  0  0  0
    7.4890    0.5127   27.8683 N   0  0  0  0  0  0  0  0  0  0  0  0
    8.1258    0.4278   24.5033 N   0  0  1  0  0  0  0  0  0  0  0  0
    9.4868    0.7478   24.9562 C   0  0  0  0  0  0  0  0  0  0  0  0
    7.9467   -0.9412   23.9833 C   0  0  0  0  0  0  0  0  0  0  0  0
    8.7766   -1.0692   22.7062 C   0  0  2  0  0  0  0  0  0  0  0  0
   10.2216   -0.6922   22.9771 C   0  0  0  0  0  0  0  0  0  0  0  0
   10.5347    0.2138   24.0051 C   0  0  0  0  0  0  0  0  0  0  0  0
   11.8677    0.5748   24.2060 C   0  0  0  0  0  0  0  0  0  0  0  0
   12.8797    0.0308   23.4369 C   0  0  0  0  0  0  0  0  0  0  0  0
   11.2475   -1.2402   22.2080 C   0  0  0  0  0  0  0  0  0  0  0  0
   12.5566   -0.8762   22.4539 C   0  0  0  0  0  0  0  0  0  0  0  0
   13.8265   -1.5912   21.5008 Cl  0  0  0  0  0  0  0  0  0  0  0  0
    8.2375   -0.1392   21.6173 C   0  0  0  0  0  0  0  0  0  0  0  0
    8.4465    1.0718   21.6293 O   0  0  0  0  0  0  0  0  0  0  0  0
    7.5094   -0.7552   20.6633 N   0  0  0  0  0  0  0  0  0  0  0  0
    6.5913   -0.2551   19.7154 C   0  0  0  0  0  0  0  0  0  0  0  0
    5.6094    0.7319   20.0635 C   0  0  0  0  0  0  0  0  0  0  0  0
    5.1265    0.9309   21.3826 C   0  0  0  0  0  0  0  0  0  0  0  0
    4.0745    1.7679   21.6337 C   0  0  0  0  0  0  0  0  0  0  0  0
    3.4614    2.4619   20.5987 C   0  0  0  0  0  0  0  0  0  0  0  0
    3.8933    2.3159   19.3127 C   0  0  0  0  0  0  0  0  0  0  0  0
    4.9683    1.4439   19.0066 C   0  0  0  0  0  0  0  0  0  0  0  0
    5.3562    1.1459   17.6805 C   0  0  0  0  0  0  0  0  0  0  0  0
    6.2431    0.2239   17.3554 N   0  0  0  0  0  0  0  0  0  0  0  0
    6.8212   -0.4551   18.3534 C   0  0  0  0  0  0  0  0  0  0  0  0
    5.5947   -1.4680   26.2990 H   0  0  0  0  0  0  0  0  0  0  0  0
    6.0572   -2.3179   28.7182 H   0  0  0  0  0  0  0  0  0  0  0  0
    7.6342   -0.5110   29.7924 H   0  0  0  0  0  0  0  0  0  0  0  0
    9.5917    1.8406   25.0246 H   0  0  0  0  0  0  0  0  0  0  0  0
    9.6461    0.3012   25.9487 H   0  0  0  0  0  0  0  0  0  0  0  0
    8.2922   -1.6726   24.7287 H   0  0  0  0  0  0  0  0  0  0  0  0
    6.8848   -1.1201   23.7588 H   0  0  0  0  0  0  0  0  0  0  0  0
    8.7321   -2.1085   22.3485 H   0  0  0  0  0  0  0  0  0  0  0  0
   12.1131    1.2915   24.9756 H   0  0  0  0  0  0  0  0  0  0  0  0
   13.9084    0.3134   23.6051 H   0  0  0  0  0  0  0  0  0  0  0  0
   11.0193   -1.9463   21.4233 H   0  0  0  0  0  0  0  0  0  0  0  0
    7.6447   -1.7451   20.6200 H   0  0  0  0  0  0  0  0  0  0  0  0
    5.5983    0.4117   22.2036 H   0  0  0  0  0  0  0  0  0  0  0  0
    3.7174    1.8902   22.6456 H   0  0  0  0  0  0  0  0  0  0  0  0
    2.6352    3.1233   20.8138 H   0  0  0  0  0  0  0  0  0  0  0  0
    3.4117    2.8699   18.5205 H   0  0  0  0  0  0  0  0  0  0  0  0
    4.8971    1.7090   16.8815 H   0  0  0  0  0  0  0  0  0  0  0  0
    7.5275   -1.2253   18.0808 H   0  0  0  0  0  0  0  0  0  0  0  0
  1  2  2  0  0  0  0
  2  3  2  0  0  0  0
  2  4  1  0  0  0  0
  2  9  1  0  0  0  0
  4  5  1  0  0  0  0
  4  8  2  0  0  0  0
  5  6  1  0  0  0  0
  5 33  1  0  0  0  0
  6  7  2  0  0  0  0
  6 34  1  0  0  0  0
  7  8  1  0  0  0  0
  7 35  1  0  0  0  0
  9 10  1  0  0  0  0
  9 11  1  0  0  0  0
 10 14  1  0  0  0  0
 10 36  1  0  0  0  0
 10 37  1  0  0  0  0
 11 12  1  0  0  0  0
 11 38  1  0  0  0  0
 11 39  1  0  0  0  0
 12 13  1  0  0  0  0
 12 20  1  0  0  0  0
 12 40  1  0  0  0  0
 13 14  2  0  0  0  0
 13 17  1  0  0  0  0
 14 15  1  0  0  0  0
 15 16  2  0  0  0  0
 15 41  1  0  0  0  0
 16 18  1  0  0  0  0
 16 42  1  0  0  0  0
 17 18  2  0  0  0  0
 17 43  1  0  0  0  0
 18 19  1  0  0  0  0
 20 21  2  0  0  0  0
 20 22  1  0  0  0  0
 22 23  1  0  0  0  0
 22 44  1  0  0  0  0
 23 24  2  0  0  0  0
 23 32  1  0  0  0  0
 24 25  1  0  0  0  0
 24 29  1  0  0  0  0
 25 26  2  0  0  0  0
 25 45  1  0  0  0  0
 26 27  1  0  0  0  0
 26 46  1  0  0  0  0
 27 28  2  0  0  0  0
 27 47  1  0  0  0  0
 28 29  1  0  0  0  0
 28 48  1  0  0  0  0
 29 30  2  0  0  0  0
 30 31  1  0  0  0  0
 30 49  1  0  0  0  0
 31 32  2  0  0  0  0
 32 50  1  0  0  0  0
M  END
> <compound_name>
MAT-POS-4223bc15-30

> <provenance>
{"isomeric_smiles": "c1ccc2c(c1)cncc2NC(=O)[C@@H]3C[N@](Cc4c3cc(cc4)Cl)S(=O)(=O)c5[nH]ccn5", "inchi": "InChI=1S/C22H18ClN5O3S/c23-16-6-5-15-12-28(32(30,31)22-25-7-8-26-22)13-19(18(15)9-16)21(29)27-20-11-24-10-14-3-1-2-4-17(14)20/h1-11,19H,12-13H2,(H,25,26)(H,27,29)/t19-/m1/s1", "inchi_key": "AVYNUDKWZTWDST-LJQANCHMSA-N", "fixed_inchi": "InChI=1/C22H18ClN5O3S/c23-16-6-5-15-12-28(32(30,31)22-25-7-8-26-22)13-19(18(15)9-16)21(29)27-20-11-24-10-14-3-1-2-4-17(14)20/h1-11,19H,12-13H2,(H,25,26)(H,27,29)/t19-/m1/s1/f/h25,27H", "fixed_inchikey": "AVYNUDKWZTWDST-ZVSVGCRFNA-N"}

> <data_format>
sdf

$$$$
