LIG(A-306)
  -OEChem-06042511393D

 61 65  0     1  0  0  0  0  0999 V2000
   13.7596   -1.4953   21.7406 Cl  0  0  0  0  0  0  0  0  0  0  0  0
   12.4705   -0.6799   22.5645 C   0  0  0  0  0  0  0  0  0  0  0  0
   12.7374    0.3146   23.4966 C   0  0  0  0  0  0  0  0  0  0  0  0
   14.3618    0.7443   23.9132 Cl  0  0  0  0  0  0  0  0  0  0  0  0
   11.6981    0.9447   24.1436 C   0  0  0  0  0  0  0  0  0  0  0  0
   10.3958    0.5713   23.8815 C   0  0  0  0  0  0  0  0  0  0  0  0
   11.1632   -1.0444   22.2834 C   0  0  0  0  0  0  0  0  0  0  0  0
   10.1078   -0.4212   22.9504 C   0  0  0  0  0  0  0  0  0  0  0  0
    8.6515   -0.8167   22.6596 C   0  0  2  0  0  0  0  0  0  0  0  0
    8.5862   -2.3132   22.3291 C   0  0  0  0  0  0  0  0  0  0  0  0
    8.1384    0.0804   21.4826 C   0  0  0  0  0  0  0  0  0  0  0  0
    7.2955   -0.5061   20.6064 N   0  0  0  0  0  0  0  0  0  0  0  0
    6.3016   -0.0305   19.7236 C   0  0  0  0  0  0  0  0  0  0  0  0
    5.3570    0.9851   20.0969 C   0  0  0  0  0  0  0  0  0  0  0  0
    4.9404    1.2273   21.4339 C   0  0  0  0  0  0  0  0  0  0  0  0
    3.9156    2.0908   21.7115 C   0  0  0  0  0  0  0  0  0  0  0  0
    3.2636    2.7681   20.6930 C   0  0  0  0  0  0  0  0  0  0  0  0
    3.6323    2.5829   19.3909 C   0  0  0  0  0  0  0  0  0  0  0  0
    4.6780    1.6834   19.0544 C   0  0  0  0  0  0  0  0  0  0  0  0
    5.0026    1.3541   17.7196 C   0  0  0  0  0  0  0  0  0  0  0  0
    5.8593    0.4106   17.3723 N   0  0  0  0  0  0  0  0  0  0  0  0
    6.4582   -0.2688   18.3578 C   0  0  0  0  0  0  0  0  0  0  0  0
    8.5333    1.2291   21.3433 O   0  0  0  0  0  0  0  0  0  0  0  0
    7.8097   -0.5637   23.8380 N   0  0  0  0  0  0  0  0  0  0  0  0
    7.1101    0.5428   24.1418 C   0  0  0  0  0  0  0  0  0  0  0  0
    7.3676    1.6581   23.6957 O   0  0  0  0  0  0  0  0  0  0  0  0
    5.9240    0.3264   25.0674 C   0  0  0  0  0  0  0  0  0  0  0  0
    5.9201    1.2252   26.2049 N   0  0  0  0  0  0  0  0  0  0  0  0
    4.9753    2.1875   26.3752 C   0  0  0  0  0  0  0  0  0  0  0  0
    4.0096    2.3744   25.6569 O   0  0  0  0  0  0  0  0  0  0  0  0
    5.3284    2.9444   27.4616 N   0  0  0  0  0  0  0  0  0  0  0  0
    6.8005    2.9215   27.5352 C   0  0  0  0  0  0  0  0  0  0  0  0
    7.1339    1.5545   26.9581 C   0  0  0  0  0  0  0  0  0  0  0  0
    4.6347    2.8655   28.7605 C   0  0  0  0  0  0  0  0  0  0  0  0
    3.2899    3.4938   28.9118 C   0  0  0  0  0  0  0  0  0  0  0  0
    3.4299    1.9998   28.9261 C   0  0  0  0  0  0  0  0  0  0  0  0
   11.9020    1.7307   24.8557 H   0  0  0  0  0  0  0  0  0  0  0  0
    9.5874    1.0573   24.4075 H   0  0  0  0  0  0  0  0  0  0  0  0
   10.9615   -1.8099   21.5488 H   0  0  0  0  0  0  0  0  0  0  0  0
    7.5444   -2.5981   22.1206 H   0  0  0  0  0  0  0  0  0  0  0  0
    9.2069   -2.5208   21.4450 H   0  0  0  0  0  0  0  0  0  0  0  0
    8.9608   -2.8942   23.1847 H   0  0  0  0  0  0  0  0  0  0  0  0
    7.3980   -1.5003   20.5756 H   0  0  0  0  0  0  0  0  0  0  0  0
    5.4415    0.7208   22.2454 H   0  0  0  0  0  0  0  0  0  0  0  0
    3.6115    2.2463   22.7360 H   0  0  0  0  0  0  0  0  0  0  0  0
    2.4582    3.4472   20.9307 H   0  0  0  0  0  0  0  0  0  0  0  0
    3.1231    3.1267   18.6090 H   0  0  0  0  0  0  0  0  0  0  0  0
    4.5185    1.9107   16.9308 H   0  0  0  0  0  0  0  0  0  0  0  0
    7.1208   -1.0718   18.0706 H   0  0  0  0  0  0  0  0  0  0  0  0
    7.7500   -1.3117   24.4990 H   0  0  0  0  0  0  0  0  0  0  0  0
    4.9987    0.4834   24.4937 H   0  0  0  0  0  0  0  0  0  0  0  0
    5.9538   -0.7086   25.4389 H   0  0  0  0  0  0  0  0  0  0  0  0
    7.2419    3.7273   26.9305 H   0  0  0  0  0  0  0  0  0  0  0  0
    7.1486    3.0104   28.5749 H   0  0  0  0  0  0  0  0  0  0  0  0
    7.3184    0.8201   27.7561 H   0  0  0  0  0  0  0  0  0  0  0  0
    8.0112    1.6052   26.2965 H   0  0  0  0  0  0  0  0  0  0  0  0
    5.2834    2.9348   29.6461 H   0  0  0  0  0  0  0  0  0  0  0  0
    3.0345    4.0316   29.8367 H   0  0  0  0  0  0  0  0  0  0  0  0
    2.8164    3.9941   28.0541 H   0  0  0  0  0  0  0  0  0  0  0  0
    3.2775    1.4415   29.8616 H   0  0  0  0  0  0  0  0  0  0  0  0
    3.0594    1.4039   28.0790 H   0  0  0  0  0  0  0  0  0  0  0  0
  1  2  1  0  0  0  0
  2  3  2  0  0  0  0
  2  7  1  0  0  0  0
  3  4  1  0  0  0  0
  3  5  1  0  0  0  0
  5  6  2  0  0  0  0
  5 37  1  0  0  0  0
  6  8  1  0  0  0  0
  6 38  1  0  0  0  0
  7  8  2  0  0  0  0
  7 39  1  0  0  0  0
  8  9  1  0  0  0  0
  9 10  1  0  0  0  0
  9 11  1  0  0  0  0
  9 24  1  0  0  0  0
 10 40  1  0  0  0  0
 10 41  1  0  0  0  0
 10 42  1  0  0  0  0
 11 12  1  0  0  0  0
 11 23  2  0  0  0  0
 12 13  1  0  0  0  0
 12 43  1  0  0  0  0
 13 14  2  0  0  0  0
 13 22  1  0  0  0  0
 14 15  1  0  0  0  0
 14 19  1  0  0  0  0
 15 16  2  0  0  0  0
 15 44  1  0  0  0  0
 16 17  1  0  0  0  0
 16 45  1  0  0  0  0
 17 18  2  0  0  0  0
 17 46  1  0  0  0  0
 18 19  1  0  0  0  0
 18 47  1  0  0  0  0
 19 20  2  0  0  0  0
 20 21  1  0  0  0  0
 20 48  1  0  0  0  0
 21 22  2  0  0  0  0
 22 49  1  0  0  0  0
 24 25  1  0  0  0  0
 24 50  1  0  0  0  0
 25 26  2  0  0  0  0
 25 27  1  0  0  0  0
 27 28  1  0  0  0  0
 27 51  1  0  0  0  0
 27 52  1  0  0  0  0
 28 29  1  0  0  0  0
 28 33  1  0  0  0  0
 29 30  2  0  0  0  0
 29 31  1  0  0  0  0
 31 32  1  0  0  0  0
 31 34  1  0  0  0  0
 32 33  1  0  0  0  0
 32 53  1  0  0  0  0
 32 54  1  0  0  0  0
 33 55  1  0  0  0  0
 33 56  1  0  0  0  0
 34 35  1  0  0  0  0
 34 36  1  0  0  0  0
 34 57  1  0  0  0  0
 35 36  1  0  0  0  0
 35 58  1  0  0  0  0
 35 59  1  0  0  0  0
 36 60  1  0  0  0  0
 36 61  1  0  0  0  0
M  END
> <compound_name>
MAT-POS-e9e99895-6

> <provenance>
{"isomeric_smiles": "C[C@@](c1ccc(c(c1)Cl)Cl)(C(=O)Nc2cncc3c2cccc3)NC(=O)CN4CCN(C4=O)C5CC5", "inchi": "InChI=1S/C26H25Cl2N5O3/c1-26(17-6-9-20(27)21(28)12-17,24(35)30-22-14-29-13-16-4-2-3-5-19(16)22)31-23(34)15-32-10-11-33(25(32)36)18-7-8-18/h2-6,9,12-14,18H,7-8,10-11,15H2,1H3,(H,30,35)(H,31,34)/t26-/m1/s1", "inchi_key": "CDPYVHPXDFRJSH-AREMUKBSSA-N", "fixed_inchi": "InChI=1/C26H25Cl2N5O3/c1-26(17-6-9-20(27)21(28)12-17,24(35)30-22-14-29-13-16-4-2-3-5-19(16)22)31-23(34)15-32-10-11-33(25(32)36)18-7-8-18/h2-6,9,12-14,18H,7-8,10-11,15H2,1H3,(H,30,35)(H,31,34)/t26-/m1/s1/f/h30-31H", "fixed_inchikey": "CDPYVHPXDFRJSH-CPUIGLMRNA-N"}

> <data_format>
sdf

$$$$
