LIG(A-305)
  -OEChem-06042511343D

 28 29  0     0  0  0  0  0  0999 V2000
    9.0697    0.8805   20.9639 O   0  0  0  0  0  0  0  0  0  0  0  0
    8.4917   -0.1225   21.3599 C   0  0  0  0  0  0  0  0  0  0  0  0
    8.9889   -0.9265   22.5449 C   0  0  0  0  0  0  0  0  0  0  0  0
   10.4609   -0.6955   22.7897 C   0  0  0  0  0  0  0  0  0  0  0  0
   10.8991    0.1975   23.7596 C   0  0  0  0  0  0  0  0  0  0  0  0
   12.2451    0.4975   23.8895 C   0  0  0  0  0  0  0  0  0  0  0  0
   13.1800   -0.1005   23.0593 C   0  0  0  0  0  0  0  0  0  0  0  0
   11.4028   -1.3155   21.9776 C   0  0  0  0  0  0  0  0  0  0  0  0
   12.7398   -1.0075   22.1204 C   0  0  0  0  0  0  0  0  0  0  0  0
   13.9007   -1.8265   21.1202 Cl  0  0  0  0  0  0  0  0  0  0  0  0
    7.3597   -0.5745   20.8131 N   0  0  0  0  0  0  0  0  0  0  0  0
    6.6825    0.0465   19.7532 C   0  0  0  0  0  0  0  0  0  0  0  0
    7.2324    0.0375   18.4741 C   0  0  0  0  0  0  0  0  0  0  0  0
    6.6982    0.6915   17.4412 N   0  0  0  0  0  0  0  0  0  0  0  0
    5.5763    1.3845   17.6643 C   0  0  0  0  0  0  0  0  0  0  0  0
    4.9474    1.4455   18.8904 C   0  0  0  0  0  0  0  0  0  0  0  0
    5.5146    0.7695   19.9533 C   0  0  0  0  0  0  0  0  0  0  0  0
    8.4259   -0.6278   23.4414 H   0  0  0  0  0  0  0  0  0  0  0  0
    8.8226   -1.9957   22.3468 H   0  0  0  0  0  0  0  0  0  0  0  0
   10.1821    0.6630   24.4197 H   0  0  0  0  0  0  0  0  0  0  0  0
   12.5680    1.2016   24.6420 H   0  0  0  0  0  0  0  0  0  0  0  0
   14.2295    0.1390   23.1465 H   0  0  0  0  0  0  0  0  0  0  0  0
   11.0890   -2.0362   21.2369 H   0  0  0  0  0  0  0  0  0  0  0  0
    6.9671   -1.4153   21.1859 H   0  0  0  0  0  0  0  0  0  0  0  0
    8.1378   -0.5279   18.3096 H   0  0  0  0  0  0  0  0  0  0  0  0
    5.1386    1.9262   16.8389 H   0  0  0  0  0  0  0  0  0  0  0  0
    4.0340    2.0079   19.0164 H   0  0  0  0  0  0  0  0  0  0  0  0
    5.0541    0.8032   20.9297 H   0  0  0  0  0  0  0  0  0  0  0  0
  1  2  2  0  0  0  0
  2  3  1  0  0  0  0
  2 11  1  0  0  0  0
  3  4  1  0  0  0  0
  3 18  1  0  0  0  0
  3 19  1  0  0  0  0
  4  5  2  0  0  0  0
  4  8  1  0  0  0  0
  5  6  1  0  0  0  0
  5 20  1  0  0  0  0
  6  7  2  0  0  0  0
  6 21  1  0  0  0  0
  7  9  1  0  0  0  0
  7 22  1  0  0  0  0
  8  9  2  0  0  0  0
  8 23  1  0  0  0  0
  9 10  1  0  0  0  0
 11 12  1  0  0  0  0
 11 24  1  0  0  0  0
 12 13  2  0  0  0  0
 12 17  1  0  0  0  0
 13 14  1  0  0  0  0
 13 25  1  0  0  0  0
 14 15  2  0  0  0  0
 15 16  1  0  0  0  0
 15 26  1  0  0  0  0
 16 17  2  0  0  0  0
 16 27  1  0  0  0  0
 17 28  1  0  0  0  0
M  END
> <compound_name>
EDG-MED-0da5ad92-2

> <provenance>
{"isomeric_smiles": "c1cc(cc(c1)Cl)CC(=O)Nc2cccnc2", "inchi": "InChI=1S/C13H11ClN2O/c14-11-4-1-3-10(7-11)8-13(17)16-12-5-2-6-15-9-12/h1-7,9H,8H2,(H,16,17)", "inchi_key": "JXVSAHMJMLDNGG-UHFFFAOYSA-N", "fixed_inchi": "InChI=1/C13H11ClN2O/c14-11-4-1-3-10(7-11)8-13(17)16-12-5-2-6-15-9-12/h1-7,9H,8H2,(H,16,17)/f/h16H", "fixed_inchikey": "JXVSAHMJMLDNGG-WYUMXYHSNA-N"}

> <data_format>
sdf

$$$$
