LIG(A-305)
  -OEChem-06042511313D

 28 29  0     0  0  0  0  0  0999 V2000
   14.4002   -1.9773   20.5265 N   0  0  0  0  0  0  0  0  0  0  0  0
   13.6912   -1.4974   21.2815 C   0  0  0  0  0  0  0  0  0  0  0  0
   12.7653   -0.9004   22.2106 C   0  0  0  0  0  0  0  0  0  0  0  0
   13.2003   -0.1014   23.2685 C   0  0  0  0  0  0  0  0  0  0  0  0
   12.3673    0.4746   24.1436 N   0  0  0  0  0  0  0  0  0  0  0  0
   11.0533    0.2606   23.9746 C   0  0  0  0  0  0  0  0  0  0  0  0
   11.3973   -1.1074   22.0646 C   0  0  0  0  0  0  0  0  0  0  0  0
   10.5123   -0.5144   22.9596 C   0  0  0  0  0  0  0  0  0  0  0  0
    9.0193   -0.6624   22.7937 C   0  0  0  0  0  0  0  0  0  0  0  0
    8.5612    0.1206   21.5787 C   0  0  0  0  0  0  0  0  0  0  0  0
    9.3232    0.8726   20.9717 O   0  0  0  0  0  0  0  0  0  0  0  0
    7.2552   -0.0205   21.2748 N   0  0  0  0  0  0  0  0  0  0  0  0
    6.6302    0.1925   20.0288 C   0  0  0  0  0  0  0  0  0  0  0  0
    7.2991    0.1375   18.8048 C   0  0  0  0  0  0  0  0  0  0  0  0
    6.7961    0.6275   17.6648 N   0  0  0  0  0  0  0  0  0  0  0  0
    5.5931    1.2105   17.7238 C   0  0  0  0  0  0  0  0  0  0  0  0
    4.8511    1.3125   18.8869 C   0  0  0  0  0  0  0  0  0  0  0  0
    5.3712    0.7765   20.0508 C   0  0  0  0  0  0  0  0  0  0  0  0
   14.2615    0.0603   23.3872 H   0  0  0  0  0  0  0  0  0  0  0  0
   10.3726    0.7220   24.6747 H   0  0  0  0  0  0  0  0  0  0  0  0
   11.0242   -1.7250   21.2609 H   0  0  0  0  0  0  0  0  0  0  0  0
    8.7697   -1.7253   22.6594 H   0  0  0  0  0  0  0  0  0  0  0  0
    8.5115   -0.2769   23.6901 H   0  0  0  0  0  0  0  0  0  0  0  0
    6.6583   -0.3110   22.0226 H   0  0  0  0  0  0  0  0  0  0  0  0
    8.2746   -0.3250   18.7758 H   0  0  0  0  0  0  0  0  0  0  0  0
    5.1795    1.6232   16.8154 H   0  0  0  0  0  0  0  0  0  0  0  0
    3.8873    1.7998   18.8859 H   0  0  0  0  0  0  0  0  0  0  0  0
    4.8029    0.8120   20.9686 H   0  0  0  0  0  0  0  0  0  0  0  0
  1  2  3  0  0  0  0
  2  3  1  0  0  0  0
  3  4  2  0  0  0  0
  3  7  1  0  0  0  0
  4  5  1  0  0  0  0
  4 19  1  0  0  0  0
  5  6  2  0  0  0  0
  6  8  1  0  0  0  0
  6 20  1  0  0  0  0
  7  8  2  0  0  0  0
  7 21  1  0  0  0  0
  8  9  1  0  0  0  0
  9 10  1  0  0  0  0
  9 22  1  0  0  0  0
  9 23  1  0  0  0  0
 10 11  2  0  0  0  0
 10 12  1  0  0  0  0
 12 13  1  0  0  0  0
 12 24  1  0  0  0  0
 13 14  2  0  0  0  0
 13 18  1  0  0  0  0
 14 15  1  0  0  0  0
 14 25  1  0  0  0  0
 15 16  2  0  0  0  0
 16 17  1  0  0  0  0
 16 26  1  0  0  0  0
 17 18  2  0  0  0  0
 17 27  1  0  0  0  0
 18 28  1  0  0  0  0
M  END
> <compound_name>
DAR-DIA-23aa0b97-17

> <provenance>
{"isomeric_smiles": "c1cc(cnc1)NC(=O)Cc2cc(cnc2)C#N", "inchi": "InChI=1S/C13H10N4O/c14-6-11-4-10(7-16-8-11)5-13(18)17-12-2-1-3-15-9-12/h1-4,7-9H,5H2,(H,17,18)", "inchi_key": "DQOFNGNCBXHENB-UHFFFAOYSA-N", "fixed_inchi": "InChI=1/C13H10N4O/c14-6-11-4-10(7-16-8-11)5-13(18)17-12-2-1-3-15-9-12/h1-4,7-9H,5H2,(H,17,18)/f/h17H", "fixed_inchikey": "DQOFNGNCBXHENB-HCKMINDGNA-N"}

> <data_format>
sdf

$$$$
