LIG(A-305)
  -OEChem-06042511393D

 45 48  0     1  0  0  0  0  0999 V2000
    9.7548    0.5943   20.8712 O   0  0  0  0  0  0  0  0  0  0  0  0
    8.9548   -0.0588   21.5271 C   0  0  0  0  0  0  0  0  0  0  0  0
    9.3947   -0.8367   22.7762 C   0  0  1  0  0  0  0  0  0  0  0  0
   10.8757   -0.5085   22.8334 C   0  0  0  0  0  0  0  0  0  0  0  0
   11.7469   -1.1453   21.9565 C   0  0  0  0  0  0  0  0  0  0  0  0
   13.0718   -0.7741   21.9337 C   0  0  0  0  0  0  0  0  0  0  0  0
   14.1601   -1.6400   20.8929 Cl  0  0  0  0  0  0  0  0  0  0  0  0
   13.5646    0.2280   22.7428 C   0  0  0  0  0  0  0  0  0  0  0  0
   12.7103    0.8718   23.6206 C   0  0  0  0  0  0  0  0  0  0  0  0
   11.3814    0.4876   23.6725 C   0  0  0  0  0  0  0  0  0  0  0  0
   10.6231    1.0995   24.6433 O   0  0  0  0  0  0  0  0  0  0  0  0
    9.2012    1.0953   24.4081 C   0  0  0  0  0  0  0  0  0  0  0  0
    8.6875   -0.2798   24.0361 C   0  0  0  0  0  0  0  0  0  0  0  0
    9.1710   -2.3598   22.6932 C   0  0  0  0  0  0  0  0  0  0  0  0
    7.7551   -2.7250   22.6760 N   0  3  0  0  0  0  0  0  0  0  0  0
    7.6438    0.0730   21.3249 N   0  0  0  0  0  0  0  0  0  0  0  0
    6.9159    0.3078   20.1488 C   0  0  0  0  0  0  0  0  0  0  0  0
    5.5768    0.7516   20.3226 C   0  0  0  0  0  0  0  0  0  0  0  0
    4.9656    0.9145   21.5935 C   0  0  0  0  0  0  0  0  0  0  0  0
    3.7375    1.4963   21.7124 C   0  0  0  0  0  0  0  0  0  0  0  0
    3.0696    1.9652   20.5933 C   0  0  0  0  0  0  0  0  0  0  0  0
    3.6138    1.8243   19.3483 C   0  0  0  0  0  0  0  0  0  0  0  0
    4.8649    1.1865   19.1745 C   0  0  0  0  0  0  0  0  0  0  0  0
    5.4911    1.0186   17.9106 C   0  0  0  0  0  0  0  0  0  0  0  0
    6.7072    0.5038   17.7408 N   0  0  0  0  0  0  0  0  0  0  0  0
    7.3981    0.1799   18.8419 C   0  0  0  0  0  0  0  0  0  0  0  0
   11.3873   -1.9237   21.2998 H   0  0  0  0  0  0  0  0  0  0  0  0
   14.6065    0.5074   22.6918 H   0  0  0  0  0  0  0  0  0  0  0  0
   13.0758    1.6640   24.2573 H   0  0  0  0  0  0  0  0  0  0  0  0
    8.6897    1.4290   25.3231 H   0  0  0  0  0  0  0  0  0  0  0  0
    8.9758    1.7918   23.5872 H   0  0  0  0  0  0  0  0  0  0  0  0
    8.8659   -0.9661   24.8771 H   0  0  0  0  0  0  0  0  0  0  0  0
    7.6073   -0.2149   23.8385 H   0  0  0  0  0  0  0  0  0  0  0  0
    9.6417   -2.7343   21.7723 H   0  0  0  0  0  0  0  0  0  0  0  0
    9.6453   -2.8326   23.5659 H   0  0  0  0  0  0  0  0  0  0  0  0
    7.6653   -3.7052   22.4992 H   0  0  0  0  0  0  0  0  0  0  0  0
    7.3440   -2.5070   23.5611 H   0  0  0  0  0  0  0  0  0  0  0  0
    7.2874   -2.2123   21.9560 H   0  0  0  0  0  0  0  0  0  0  0  0
    7.0853   -0.0094   22.1504 H   0  0  0  0  0  0  0  0  0  0  0  0
    5.4804    0.5728   22.4793 H   0  0  0  0  0  0  0  0  0  0  0  0
    3.2822    1.5922   22.6870 H   0  0  0  0  0  0  0  0  0  0  0  0
    2.1095    2.4467   20.7060 H   0  0  0  0  0  0  0  0  0  0  0  0
    3.0834    2.2037   18.4875 H   0  0  0  0  0  0  0  0  0  0  0  0
    4.9460    1.3282   17.0312 H   0  0  0  0  0  0  0  0  0  0  0  0
    8.3979   -0.2073   18.7114 H   0  0  0  0  0  0  0  0  0  0  0  0
  1  2  2  0  0  0  0
  2  3  1  0  0  0  0
  2 16  1  0  0  0  0
  3  4  1  0  0  0  0
  3 13  1  0  0  0  0
  3 14  1  0  0  0  0
  4  5  2  0  0  0  0
  4 10  1  0  0  0  0
  5  6  1  0  0  0  0
  5 27  1  0  0  0  0
  6  7  1  0  0  0  0
  6  8  2  0  0  0  0
  8  9  1  0  0  0  0
  8 28  1  0  0  0  0
  9 10  2  0  0  0  0
  9 29  1  0  0  0  0
 10 11  1  0  0  0  0
 11 12  1  0  0  0  0
 12 13  1  0  0  0  0
 12 30  1  0  0  0  0
 12 31  1  0  0  0  0
 13 32  1  0  0  0  0
 13 33  1  0  0  0  0
 14 15  1  0  0  0  0
 14 34  1  0  0  0  0
 14 35  1  0  0  0  0
 15 36  1  0  0  0  0
 15 37  1  0  0  0  0
 15 38  1  0  0  0  0
 16 17  1  0  0  0  0
 16 39  1  0  0  0  0
 17 18  2  0  0  0  0
 17 26  1  0  0  0  0
 18 19  1  0  0  0  0
 18 23  1  0  0  0  0
 19 20  2  0  0  0  0
 19 40  1  0  0  0  0
 20 21  1  0  0  0  0
 20 41  1  0  0  0  0
 21 22  2  0  0  0  0
 21 42  1  0  0  0  0
 22 23  1  0  0  0  0
 22 43  1  0  0  0  0
 23 24  2  0  0  0  0
 24 25  1  0  0  0  0
 24 44  1  0  0  0  0
 25 26  2  0  0  0  0
 26 45  1  0  0  0  0
M  CHG  1  15   1
M  END
> <compound_name>
EDG-MED-971238d3-5

> <provenance>
{"isomeric_smiles": "c1ccc2c(c1)cncc2NC(=O)[C@@]3(CCOc4c3cc(cc4)Cl)C[NH3+]", "inchi": "InChI=1S/C20H18ClN3O2/c21-14-5-6-18-16(9-14)20(12-22,7-8-26-18)19(25)24-17-11-23-10-13-3-1-2-4-15(13)17/h1-6,9-11H,7-8,12,22H2,(H,24,25)/p+1/t20-/m0/s1", "inchi_key": "ILSGMAUMNXSNQB-FQEVSTJZSA-O", "fixed_inchi": "InChI=1/C20H18ClN3O2/c21-14-5-6-18-16(9-14)20(12-22,7-8-26-18)19(25)24-17-11-23-10-13-3-1-2-4-15(13)17/h1-6,9-11H,7-8,12,22H2,(H,24,25)/p+1/t20-/m0/s1/fC20H19ClN3O2/h22,24H/q+1", "fixed_inchikey": "ILSGMAUMNXSNQB-YZUVJQDXNA-O"}

> <data_format>
sdf

$$$$
