LIG(A-306)
  -OEChem-06042511423D

 40 43  0     1  0  0  0  0  0999 V2000
    9.3689    1.1367   21.2275 O   0  0  0  0  0  0  0  0  0  0  0  0
    8.8708    0.1174   21.7085 C   0  0  0  0  0  0  0  0  0  0  0  0
    7.7555   -0.4698   21.2079 N   0  0  0  0  0  0  0  0  0  0  0  0
    6.9771   -0.0397   20.1062 C   0  0  0  0  0  0  0  0  0  0  0  0
    5.7878    0.7126   20.3652 C   0  0  0  0  0  0  0  0  0  0  0  0
    5.2876    0.9741   21.6686 C   0  0  0  0  0  0  0  0  0  0  0  0
    4.1713    1.7396   21.8527 C   0  0  0  0  0  0  0  0  0  0  0  0
    3.4962    2.2814   20.7645 C   0  0  0  0  0  0  0  0  0  0  0  0
    3.9364    2.0588   19.4903 C   0  0  0  0  0  0  0  0  0  0  0  0
    5.0887    1.2676   19.2541 C   0  0  0  0  0  0  0  0  0  0  0  0
    5.6089    1.0240   17.9567 C   0  0  0  0  0  0  0  0  0  0  0  0
    6.7043    0.3158   17.7160 N   0  0  0  0  0  0  0  0  0  0  0  0
    7.3555   -0.1988   18.7723 C   0  0  0  0  0  0  0  0  0  0  0  0
    9.4846   -0.6010   22.9128 C   0  0  1  0  0  0  0  0  0  0  0  0
   10.9851   -0.3643   22.9567 C   0  0  0  0  0  0  0  0  0  0  0  0
   11.8274   -1.1040   22.1268 C   0  0  0  0  0  0  0  0  0  0  0  0
   13.1601   -0.7612   22.0132 C   0  0  0  0  0  0  0  0  0  0  0  0
   14.1690   -1.6478   20.9106 Cl  0  0  0  0  0  0  0  0  0  0  0  0
    8.8208   -0.1872   24.2371 C   0  0  0  0  0  0  0  0  0  0  0  0
    9.0948    1.2463   24.4312 N   0  0  0  0  0  0  0  0  0  0  0  0
   10.6245    1.5297   24.9153 S   0  0  0  0  0  0  0  0  0  0  0  0
   10.8045    0.9089   26.1941 O   0  0  0  0  0  0  0  0  0  0  0  0
   10.8835    2.9318   24.7862 O   0  0  0  0  0  0  0  0  0  0  0  0
   11.5624    0.6597   23.7177 C   0  0  0  0  0  0  0  0  0  0  0  0
   12.9041    0.9915   23.5951 C   0  0  0  0  0  0  0  0  0  0  0  0
   13.7034    0.2861   22.7184 C   0  0  0  0  0  0  0  0  0  0  0  0
    7.4476   -1.3017   21.6696 H   0  0  0  0  0  0  0  0  0  0  0  0
    5.7975    0.5617   22.5267 H   0  0  0  0  0  0  0  0  0  0  0  0
    3.8095    1.9256   22.8531 H   0  0  0  0  0  0  0  0  0  0  0  0
    2.6151    2.8842   20.9281 H   0  0  0  0  0  0  0  0  0  0  0  0
    3.4021    2.4892   18.6562 H   0  0  0  0  0  0  0  0  0  0  0  0
    5.0799    1.4411   17.1126 H   0  0  0  0  0  0  0  0  0  0  0  0
    8.2424   -0.7822   18.5735 H   0  0  0  0  0  0  0  0  0  0  0  0
    9.3174   -1.6800   22.7796 H   0  0  0  0  0  0  0  0  0  0  0  0
   11.4371   -1.9450   21.5729 H   0  0  0  0  0  0  0  0  0  0  0  0
    7.7357   -0.3599   24.1849 H   0  0  0  0  0  0  0  0  0  0  0  0
    9.2450   -0.7682   25.0692 H   0  0  0  0  0  0  0  0  0  0  0  0
    8.6521    1.9070   23.8250 H   0  0  0  0  0  0  0  0  0  0  0  0
   13.3204    1.7968   24.1821 H   0  0  0  0  0  0  0  0  0  0  0  0
   14.7417    0.5535   22.5882 H   0  0  0  0  0  0  0  0  0  0  0  0
  1  2  2  0  0  0  0
  2  3  1  0  0  0  0
  2 14  1  0  0  0  0
  3  4  1  0  0  0  0
  3 27  1  0  0  0  0
  4  5  2  0  0  0  0
  4 13  1  0  0  0  0
  5  6  1  0  0  0  0
  5 10  1  0  0  0  0
  6  7  2  0  0  0  0
  6 28  1  0  0  0  0
  7  8  1  0  0  0  0
  7 29  1  0  0  0  0
  8  9  2  0  0  0  0
  8 30  1  0  0  0  0
  9 10  1  0  0  0  0
  9 31  1  0  0  0  0
 10 11  2  0  0  0  0
 11 12  1  0  0  0  0
 11 32  1  0  0  0  0
 12 13  2  0  0  0  0
 13 33  1  0  0  0  0
 14 15  1  0  0  0  0
 14 19  1  0  0  0  0
 14 34  1  0  0  0  0
 15 16  2  0  0  0  0
 15 24  1  0  0  0  0
 16 17  1  0  0  0  0
 16 35  1  0  0  0  0
 17 18  1  0  0  0  0
 17 26  2  0  0  0  0
 19 20  1  0  0  0  0
 19 36  1  0  0  0  0
 19 37  1  0  0  0  0
 20 21  1  0  0  0  0
 20 38  1  0  0  0  0
 21 22  2  0  0  0  0
 21 23  2  0  0  0  0
 21 24  1  0  0  0  0
 24 25  2  0  0  0  0
 25 26  1  0  0  0  0
 25 39  1  0  0  0  0
 26 40  1  0  0  0  0
M  END
> <compound_name>
ALP-POS-a577c8a2-1

> <provenance>
{"isomeric_smiles": "c1ccc2c(c1)cncc2NC(=O)[C@@H]3CNS(=O)(=O)c4c3cc(cc4)Cl", "inchi": "InChI=1S/C18H14ClN3O3S/c19-12-5-6-17-14(7-12)15(9-21-26(17,24)25)18(23)22-16-10-20-8-11-3-1-2-4-13(11)16/h1-8,10,15,21H,9H2,(H,22,23)/t15-/m1/s1", "inchi_key": "DEOCOIVMHQCEOX-OAHLLOKOSA-N", "fixed_inchi": "InChI=1/C18H14ClN3O3S/c19-12-5-6-17-14(7-12)15(9-21-26(17,24)25)18(23)22-16-10-20-8-11-3-1-2-4-13(11)16/h1-8,10,15,21H,9H2,(H,22,23)/t15-/m1/s1/f/h22H", "fixed_inchikey": "DEOCOIVMHQCEOX-RYSKXMCPNA-N"}

> <data_format>
sdf

$$$$
