LIG(A-305)
  -OEChem-06042511363D

 38 40  0     0  0  0  0  0  0999 V2000
    8.7230    1.4496   21.2786 O   0  0  0  0  0  0  0  0  0  0  0  0
    8.3949    0.2676   21.3377 C   0  0  0  0  0  0  0  0  0  0  0  0
    8.8989   -0.6454   22.4377 C   0  0  0  0  0  0  0  0  0  0  0  0
   10.3770   -0.4574   22.6936 C   0  0  0  0  0  0  0  0  0  0  0  0
   10.8300    0.5086   23.5836 C   0  0  0  0  0  0  0  0  0  0  0  0
   12.1840    0.7735   23.7175 C   0  0  0  0  0  0  0  0  0  0  0  0
   13.1100    0.0634   22.9705 C   0  0  0  0  0  0  0  0  0  0  0  0
   11.3099   -1.1925   21.9696 C   0  0  0  0  0  0  0  0  0  0  0  0
   12.6569   -0.9266   22.1226 C   0  0  0  0  0  0  0  0  0  0  0  0
   13.8118   -1.8987   21.2526 Cl  0  0  0  0  0  0  0  0  0  0  0  0
    7.6489   -0.3434   20.3967 N   0  0  0  0  0  0  0  0  0  0  0  0
    6.6369    0.0716   19.4997 C   0  0  0  0  0  0  0  0  0  0  0  0
    5.6529    1.0217   19.8327 C   0  0  0  0  0  0  0  0  0  0  0  0
    4.9959    1.6806   18.7947 C   0  0  0  0  0  0  0  0  0  0  0  0
    5.3569    1.3866   17.4957 C   0  0  0  0  0  0  0  0  0  0  0  0
    6.2829    0.4835   17.1647 N   0  0  0  0  0  0  0  0  0  0  0  0
    6.8838   -0.1765   18.1567 C   0  0  0  0  0  0  0  0  0  0  0  0
    5.2210    1.3307   21.2237 C   0  0  0  0  0  0  0  0  0  0  0  0
    4.9541    2.6488   21.6016 C   0  0  0  0  0  0  0  0  0  0  0  0
    4.3761    2.9298   22.8307 C   0  0  0  0  0  0  0  0  0  0  0  0
    4.0701    1.9049   23.7047 C   0  0  0  0  0  0  0  0  0  0  0  0
    4.3460    0.5969   23.3537 C   0  0  0  0  0  0  0  0  0  0  0  0
    4.9230    0.3098   22.1267 C   0  0  0  0  0  0  0  0  0  0  0  0
    8.3470   -0.4251   23.3633 H   0  0  0  0  0  0  0  0  0  0  0  0
    8.7191   -1.6899   22.1432 H   0  0  0  0  0  0  0  0  0  0  0  0
   10.1178    1.0604   24.1790 H   0  0  0  0  0  0  0  0  0  0  0  0
   12.5181    1.5355   24.4061 H   0  0  0  0  0  0  0  0  0  0  0  0
   14.1650    0.2803   23.0502 H   0  0  0  0  0  0  0  0  0  0  0  0
   10.9829   -1.9669   21.2916 H   0  0  0  0  0  0  0  0  0  0  0  0
    7.8598   -1.3173   20.3129 H   0  0  0  0  0  0  0  0  0  0  0  0
    4.2221    2.4048   19.0025 H   0  0  0  0  0  0  0  0  0  0  0  0
    4.8602    1.9194   16.6983 H   0  0  0  0  0  0  0  0  0  0  0  0
    7.5997   -0.9436   17.9011 H   0  0  0  0  0  0  0  0  0  0  0  0
    5.2004    3.4575   20.9296 H   0  0  0  0  0  0  0  0  0  0  0  0
    4.1648    3.9528   23.1050 H   0  0  0  0  0  0  0  0  0  0  0  0
    3.6164    2.1250   24.6597 H   0  0  0  0  0  0  0  0  0  0  0  0
    4.1111   -0.2047   24.0384 H   0  0  0  0  0  0  0  0  0  0  0  0
    5.1442   -0.7149   21.8669 H   0  0  0  0  0  0  0  0  0  0  0  0
  1  2  2  0  0  0  0
  2  3  1  0  0  0  0
  2 11  1  0  0  0  0
  3  4  1  0  0  0  0
  3 24  1  0  0  0  0
  3 25  1  0  0  0  0
  4  5  2  0  0  0  0
  4  8  1  0  0  0  0
  5  6  1  0  0  0  0
  5 26  1  0  0  0  0
  6  7  2  0  0  0  0
  6 27  1  0  0  0  0
  7  9  1  0  0  0  0
  7 28  1  0  0  0  0
  8  9  2  0  0  0  0
  8 29  1  0  0  0  0
  9 10  1  0  0  0  0
 11 12  1  0  0  0  0
 11 30  1  0  0  0  0
 12 13  2  0  0  0  0
 12 17  1  0  0  0  0
 13 14  1  0  0  0  0
 13 18  1  0  0  0  0
 14 15  2  0  0  0  0
 14 31  1  0  0  0  0
 15 16  1  0  0  0  0
 15 32  1  0  0  0  0
 16 17  2  0  0  0  0
 17 33  1  0  0  0  0
 18 19  2  0  0  0  0
 18 23  1  0  0  0  0
 19 20  1  0  0  0  0
 19 34  1  0  0  0  0
 20 21  2  0  0  0  0
 20 35  1  0  0  0  0
 21 22  1  0  0  0  0
 21 36  1  0  0  0  0
 22 23  2  0  0  0  0
 22 37  1  0  0  0  0
 23 38  1  0  0  0  0
M  END
> <compound_name>
ALP-POS-0c2c77e1-1

> <provenance>
{"isomeric_smiles": "c1ccc(cc1)c2ccncc2NC(=O)Cc3cccc(c3)Cl", "inchi": "InChI=1S/C19H15ClN2O/c20-16-8-4-5-14(11-16)12-19(23)22-18-13-21-10-9-17(18)15-6-2-1-3-7-15/h1-11,13H,12H2,(H,22,23)", "inchi_key": "VSOZJTYJJHNDPD-UHFFFAOYSA-N", "fixed_inchi": "InChI=1/C19H15ClN2O/c20-16-8-4-5-14(11-16)12-19(23)22-18-13-21-10-9-17(18)15-6-2-1-3-7-15/h1-11,13H,12H2,(H,22,23)/f/h22H", "fixed_inchikey": "VSOZJTYJJHNDPD-QWOVJGMINA-N"}

> <data_format>
sdf

$$$$
