LIG(A-305)
  -OEChem-06042511323D

 36 38  0     1  0  0  0  0  0999 V2000
    9.5299   -0.5619   21.8792 N   0  0  0  0  0  0  0  0  0  0  0  0
   12.2507    4.3916   21.8040 N   0  0  0  0  0  0  0  0  0  0  0  0
    4.8568    1.5649   19.0079 N   0  0  0  0  0  0  0  0  0  0  0  0
   11.8298   -1.2173   22.1968 C   0  0  0  0  0  0  0  0  0  0  0  0
   12.0978    3.7576   23.1110 C   0  0  1  0  0  0  0  0  0  0  0  0
   12.9636    2.6184   23.3048 O   0  0  0  0  0  0  0  0  0  0  0  0
    5.4269    0.8408   19.9788 C   0  0  0  0  0  0  0  0  0  0  0  0
   10.8540   -0.2262   22.2490 C   0  0  0  0  0  0  0  0  0  0  0  0
    7.0285    0.0096   18.4855 C   0  0  0  0  0  0  0  0  0  0  0  0
    6.5247    0.0196   19.7746 C   0  0  0  0  0  0  0  0  0  0  0  0
    7.3178   -0.5375   20.9345 C   0  0  0  0  0  0  0  0  0  0  0  0
   12.5193    1.3685   22.9269 C   0  0  0  0  0  0  0  0  0  0  0  0
   12.8239    5.5065   22.2940 C   0  0  0  0  0  0  0  0  0  0  0  0
   11.1963    1.0698   22.6250 C   0  0  0  0  0  0  0  0  0  0  0  0
   14.0698   -1.8447   22.4695 F   0  0  0  0  0  0  0  0  0  0  0  0
   12.8140    4.9684   23.7190 C   0  0  0  0  0  0  0  0  0  0  0  0
   13.5072    0.3974   22.8697 C   0  0  0  0  0  0  0  0  0  0  0  0
   13.1229   -0.8706   22.5027 C   0  0  0  0  0  0  0  0  0  0  0  0
    6.4925    0.7128   17.4826 N   0  0  0  0  0  0  0  0  0  0  0  0
    8.7901    1.3632   20.8954 O   0  0  0  0  0  0  0  0  0  0  0  0
   13.2030    6.5415   21.7470 O   0  0  0  0  0  0  0  0  0  0  0  0
    5.4217    1.4469   17.8038 C   0  0  0  0  0  0  0  0  0  0  0  0
    8.6119    0.1942   21.2313 C   0  0  0  0  0  0  0  0  0  0  0  0
    9.2315   -1.4827   22.1304 H   0  0  0  0  0  0  0  0  0  0  0  0
   12.0141    4.1012   20.8768 H   0  0  0  0  0  0  0  0  0  0  0  0
   11.5770   -2.2311   21.9234 H   0  0  0  0  0  0  0  0  0  0  0  0
   11.0604    3.6310   23.4544 H   0  0  0  0  0  0  0  0  0  0  0  0
    5.0095    0.8994   20.9731 H   0  0  0  0  0  0  0  0  0  0  0  0
    7.8983   -0.5966   18.2795 H   0  0  0  0  0  0  0  0  0  0  0  0
    6.6857   -0.4930   21.8337 H   0  0  0  0  0  0  0  0  0  0  0  0
    7.5618   -1.5863   20.7094 H   0  0  0  0  0  0  0  0  0  0  0  0
   10.4388    1.8375   22.6818 H   0  0  0  0  0  0  0  0  0  0  0  0
   12.2195    5.5530   24.4365 H   0  0  0  0  0  0  0  0  0  0  0  0
   13.8052    4.7599   24.1480 H   0  0  0  0  0  0  0  0  0  0  0  0
   14.5360    0.6274   23.1038 H   0  0  0  0  0  0  0  0  0  0  0  0
    4.9635    2.0056   17.0011 H   0  0  0  0  0  0  0  0  0  0  0  0
  1  8  1  0  0  0  0
  1 23  1  0  0  0  0
  1 24  1  0  0  0  0
  2  5  1  0  0  0  0
  2 13  1  0  0  0  0
  2 25  1  0  0  0  0
  3  7  2  0  0  0  0
  3 22  1  0  0  0  0
  4  8  2  0  0  0  0
  4 18  1  0  0  0  0
  4 26  1  0  0  0  0
  5  6  1  0  0  0  0
  5 16  1  0  0  0  0
  5 27  1  0  0  0  0
  6 12  1  0  0  0  0
  7 10  1  0  0  0  0
  7 28  1  0  0  0  0
  8 14  1  0  0  0  0
  9 10  2  0  0  0  0
  9 19  1  0  0  0  0
  9 29  1  0  0  0  0
 10 11  1  0  0  0  0
 11 23  1  0  0  0  0
 11 30  1  0  0  0  0
 11 31  1  0  0  0  0
 12 14  2  0  0  0  0
 12 17  1  0  0  0  0
 13 16  1  0  0  0  0
 13 21  2  0  0  0  0
 14 32  1  0  0  0  0
 15 18  1  0  0  0  0
 16 33  1  0  0  0  0
 16 34  1  0  0  0  0
 17 18  2  0  0  0  0
 17 35  1  0  0  0  0
 19 22  2  0  0  0  0
 20 23  2  0  0  0  0
 22 36  1  0  0  0  0
M  END
> <compound_name>
RAL-MED-2de63afb-14

> <provenance>
{"isomeric_smiles": "c1c(cc(cc1O[C@H]2CC(=O)N2)F)NC(=O)Cc3cncnc3", "inchi": "InChI=1S/C15H13FN4O3/c16-10-2-11(4-12(3-10)23-15-5-14(22)20-15)19-13(21)1-9-6-17-8-18-7-9/h2-4,6-8,15H,1,5H2,(H,19,21)(H,20,22)/t15-/m0/s1", "inchi_key": "SFHHIQYDZORTHQ-HNNXBMFYSA-N", "fixed_inchi": "InChI=1/C15H13FN4O3/c16-10-2-11(4-12(3-10)23-15-5-14(22)20-15)19-13(21)1-9-6-17-8-18-7-9/h2-4,6-8,15H,1,5H2,(H,19,21)(H,20,22)/t15-/m0/s1/f/h19-20H", "fixed_inchikey": "SFHHIQYDZORTHQ-ANFPSLHUNA-N"}

> <data_format>
sdf

$$$$
