LIG(A-305)
  -OEChem-06042511373D

 43 46  0     1  0  0  0  0  0999 V2000
    9.1645    1.4810   21.1063 O   0  0  0  0  0  0  0  0  0  0  0  0
    8.9136    0.3189   21.4012 C   0  0  0  0  0  0  0  0  0  0  0  0
    9.4855   -0.3660   22.6762 C   0  0  1  0  0  0  0  0  0  0  0  0
   10.9875   -0.1989   22.7404 C   0  0  0  0  0  0  0  0  0  0  0  0
   11.8167   -0.7787   21.7845 C   0  0  0  0  0  0  0  0  0  0  0  0
   13.1846   -0.6196   21.8897 C   0  0  0  0  0  0  0  0  0  0  0  0
   14.2209   -1.5304   20.8278 Cl  0  0  0  0  0  0  0  0  0  0  0  0
   13.7524    0.1655   22.8688 C   0  0  0  0  0  0  0  0  0  0  0  0
   12.9382    0.7694   23.8087 C   0  0  0  0  0  0  0  0  0  0  0  0
   11.5713    0.5642   23.7535 C   0  0  0  0  0  0  0  0  0  0  0  0
   10.8431    1.1301   24.7705 O   0  0  0  0  0  0  0  0  0  0  0  0
    9.4881    1.4499   24.4203 C   0  0  0  0  0  0  0  0  0  0  0  0
    8.7583    0.2348   23.8902 C   0  0  0  0  0  0  0  0  0  0  0  0
    8.9907   -1.7131   22.5981 O   0  0  0  0  0  0  0  0  0  0  0  0
    9.7777   -2.7420   23.2032 C   0  0  0  0  0  0  0  0  0  0  0  0
    8.0888   -0.4511   20.6651 N   0  0  0  0  0  0  0  0  0  0  0  0
    7.1818   -0.0122   19.6850 C   0  0  0  0  0  0  0  0  0  0  0  0
    5.9507    0.5686   20.1228 C   0  0  0  0  0  0  0  0  0  0  0  0
    5.5675    0.6745   21.4858 C   0  0  0  0  0  0  0  0  0  0  0  0
    4.4044    1.2964   21.8426 C   0  0  0  0  0  0  0  0  0  0  0  0
    3.5685    1.8393   20.8776 C   0  0  0  0  0  0  0  0  0  0  0  0
    3.8896    1.7604   19.5536 C   0  0  0  0  0  0  0  0  0  0  0  0
    5.0838    1.1185   19.1387 C   0  0  0  0  0  0  0  0  0  0  0  0
    5.4900    1.0346   17.7878 C   0  0  0  0  0  0  0  0  0  0  0  0
    6.6281    0.4818   17.3839 N   0  0  0  0  0  0  0  0  0  0  0  0
    7.4410   -0.0262   18.3190 C   0  0  0  0  0  0  0  0  0  0  0  0
   11.3947   -1.3473   20.9690 H   0  0  0  0  0  0  0  0  0  0  0  0
   14.8225    0.3077   22.9018 H   0  0  0  0  0  0  0  0  0  0  0  0
   13.3652    1.3951   24.5785 H   0  0  0  0  0  0  0  0  0  0  0  0
    8.9647    1.8212   25.3137 H   0  0  0  0  0  0  0  0  0  0  0  0
    9.4925    2.2317   23.6465 H   0  0  0  0  0  0  0  0  0  0  0  0
    8.7001   -0.5235   24.6848 H   0  0  0  0  0  0  0  0  0  0  0  0
    7.7421    0.5297   23.5895 H   0  0  0  0  0  0  0  0  0  0  0  0
    9.2800   -3.7134   23.0665 H   0  0  0  0  0  0  0  0  0  0  0  0
   10.7709   -2.7694   22.7310 H   0  0  0  0  0  0  0  0  0  0  0  0
    9.8883   -2.5348   24.2778 H   0  0  0  0  0  0  0  0  0  0  0  0
    8.1256   -1.4362   20.8332 H   0  0  0  0  0  0  0  0  0  0  0  0
    6.2047    0.2575   22.2516 H   0  0  0  0  0  0  0  0  0  0  0  0
    4.1333    1.3659   22.8857 H   0  0  0  0  0  0  0  0  0  0  0  0
    2.6540    2.3295   21.1773 H   0  0  0  0  0  0  0  0  0  0  0  0
    3.2287    2.1904   18.8156 H   0  0  0  0  0  0  0  0  0  0  0  0
    4.8331    1.4463   17.0358 H   0  0  0  0  0  0  0  0  0  0  0  0
    8.3641   -0.4790   17.9885 H   0  0  0  0  0  0  0  0  0  0  0  0
  1  2  2  0  0  0  0
  2  3  1  0  0  0  0
  2 16  1  0  0  0  0
  3  4  1  0  0  0  0
  3 13  1  0  0  0  0
  3 14  1  0  0  0  0
  4  5  2  0  0  0  0
  4 10  1  0  0  0  0
  5  6  1  0  0  0  0
  5 27  1  0  0  0  0
  6  7  1  0  0  0  0
  6  8  2  0  0  0  0
  8  9  1  0  0  0  0
  8 28  1  0  0  0  0
  9 10  2  0  0  0  0
  9 29  1  0  0  0  0
 10 11  1  0  0  0  0
 11 12  1  0  0  0  0
 12 13  1  0  0  0  0
 12 30  1  0  0  0  0
 12 31  1  0  0  0  0
 13 32  1  0  0  0  0
 13 33  1  0  0  0  0
 14 15  1  0  0  0  0
 15 34  1  0  0  0  0
 15 35  1  0  0  0  0
 15 36  1  0  0  0  0
 16 17  1  0  0  0  0
 16 37  1  0  0  0  0
 17 18  2  0  0  0  0
 17 26  1  0  0  0  0
 18 19  1  0  0  0  0
 18 23  1  0  0  0  0
 19 20  2  0  0  0  0
 19 38  1  0  0  0  0
 20 21  1  0  0  0  0
 20 39  1  0  0  0  0
 21 22  2  0  0  0  0
 21 40  1  0  0  0  0
 22 23  1  0  0  0  0
 22 41  1  0  0  0  0
 23 24  2  0  0  0  0
 24 25  1  0  0  0  0
 24 42  1  0  0  0  0
 25 26  2  0  0  0  0
 26 43  1  0  0  0  0
M  END
> <compound_name>
EDG-MED-0e5afe9d-3

> <provenance>
{"isomeric_smiles": "CO[C@]1(CCOc2c1cc(cc2)Cl)C(=O)Nc3cncc4c3cccc4", "inchi": "InChI=1S/C20H17ClN2O3/c1-25-20(8-9-26-18-7-6-14(21)10-16(18)20)19(24)23-17-12-22-11-13-4-2-3-5-15(13)17/h2-7,10-12H,8-9H2,1H3,(H,23,24)/t20-/m0/s1", "inchi_key": "FRAUGLSYTUOOAF-FQEVSTJZSA-N", "fixed_inchi": "InChI=1/C20H17ClN2O3/c1-25-20(8-9-26-18-7-6-14(21)10-16(18)20)19(24)23-17-12-22-11-13-4-2-3-5-15(13)17/h2-7,10-12H,8-9H2,1H3,(H,23,24)/t20-/m0/s1/f/h23H", "fixed_inchikey": "FRAUGLSYTUOOAF-LVSCZHILNA-N"}

> <data_format>
sdf

$$$$
