LIG(A-305)
  -OEChem-06042511343D

 46 48  0     1  0  0  0  0  0999 V2000
    7.5184   -1.5123   21.5264 N   0  0  0  0  0  0  0  0  0  0  0  0
   11.4337    0.5605   23.1490 C   0  0  0  0  0  0  0  0  0  0  0  0
    5.9254   -0.4742   20.0735 C   0  0  0  0  0  0  0  0  0  0  0  0
    4.2955    0.2999   21.8096 C   0  0  0  0  0  0  0  0  0  0  0  0
    9.9025   -1.0604   22.3002 O   0  0  0  0  0  0  0  0  0  0  0  0
   10.1235   -3.1874   23.5172 C   0  0  0  0  0  0  0  0  0  0  0  0
    6.6412    1.0656   16.9324 O   0  0  0  0  0  0  0  0  0  0  0  0
   12.7177    1.0885   23.2069 C   0  0  0  0  0  0  0  0  0  0  0  0
   11.2105   -0.6705   22.4891 C   0  0  0  0  0  0  0  0  0  0  0  0
    2.7246    2.0500   21.2586 C   0  0  0  0  0  0  0  0  0  0  0  0
   12.2765   -1.3376   21.9000 C   0  0  0  0  0  0  0  0  0  0  0  0
   13.5425   -0.7736   21.9299 C   0  0  0  0  0  0  0  0  0  0  0  0
    6.0493    0.7637   17.9674 C   0  0  0  0  0  0  0  0  0  0  0  0
    6.3574   -1.6392   20.8865 C   0  0  0  0  0  0  0  0  0  0  0  0
    3.2336    1.1110   22.1166 C   0  0  0  0  0  0  0  0  0  0  0  0
    2.6147    0.9221   23.3127 F   0  0  0  0  0  0  0  0  0  0  0  0
    7.9614   -2.4773   22.5264 C   0  0  0  0  0  0  0  0  0  0  0  0
    6.4743   -0.2753   18.8444 C   0  0  0  0  0  0  0  0  0  0  0  0
    4.8605    0.4028   20.5395 C   0  0  0  0  0  0  0  0  0  0  0  0
    4.3834    1.3798   19.6475 C   0  0  0  0  0  0  0  0  0  0  0  0
   10.4409    2.5406   24.0660 C   0  0  0  0  0  0  0  0  0  0  0  0
    4.9924    1.5208   18.4025 N   0  0  0  0  0  0  0  0  0  0  0  0
   10.3097    1.1976   23.6031 O   0  0  0  0  0  0  0  0  0  0  0  0
    5.6493   -2.6362   20.9956 O   0  0  0  0  0  0  0  0  0  0  0  0
    9.2625   -1.9853   23.2263 C   0  0  2  0  0  0  0  0  0  0  0  0
   13.7606    0.4264   22.5788 C   0  0  0  0  0  0  0  0  0  0  0  0
    3.3145    2.1929   20.0146 C   0  0  0  0  0  0  0  0  0  0  0  0
    8.1050   -0.7306   21.3146 H   0  0  0  0  0  0  0  0  0  0  0  0
    4.6845   -0.4010   22.5335 H   0  0  0  0  0  0  0  0  0  0  0  0
   11.0505   -2.8637   24.0130 H   0  0  0  0  0  0  0  0  0  0  0  0
    9.5775   -3.8784   24.1763 H   0  0  0  0  0  0  0  0  0  0  0  0
   10.3708   -3.6979   22.5748 H   0  0  0  0  0  0  0  0  0  0  0  0
   12.9020    2.0102   23.7388 H   0  0  0  0  0  0  0  0  0  0  0  0
    1.8837    2.6638   21.5459 H   0  0  0  0  0  0  0  0  0  0  0  0
   12.1198   -2.2924   21.4203 H   0  0  0  0  0  0  0  0  0  0  0  0
   14.3646   -1.2762   21.4422 H   0  0  0  0  0  0  0  0  0  0  0  0
    7.1712   -2.6041   23.2809 H   0  0  0  0  0  0  0  0  0  0  0  0
    8.1579   -3.4418   22.0354 H   0  0  0  0  0  0  0  0  0  0  0  0
    7.2665   -0.9337   18.5198 H   0  0  0  0  0  0  0  0  0  0  0  0
    9.4596    2.9129   24.3955 H   0  0  0  0  0  0  0  0  0  0  0  0
   11.1462    2.5703   24.9096 H   0  0  0  0  0  0  0  0  0  0  0  0
   10.8182    3.1745   23.2500 H   0  0  0  0  0  0  0  0  0  0  0  0
    4.6347    2.2212   17.7855 H   0  0  0  0  0  0  0  0  0  0  0  0
    8.9998   -1.4755   24.1650 H   0  0  0  0  0  0  0  0  0  0  0  0
   14.7529    0.8523   22.5969 H   0  0  0  0  0  0  0  0  0  0  0  0
    2.9442    2.9380   19.3260 H   0  0  0  0  0  0  0  0  0  0  0  0
  1 14  1  0  0  0  0
  1 17  1  0  0  0  0
  1 28  1  0  0  0  0
  2  8  2  0  0  0  0
  2  9  1  0  0  0  0
  2 23  1  0  0  0  0
  3 14  1  0  0  0  0
  3 18  2  0  0  0  0
  3 19  1  0  0  0  0
  4 15  1  0  0  0  0
  4 19  2  0  0  0  0
  4 29  1  0  0  0  0
  5  9  1  0  0  0  0
  5 25  1  0  0  0  0
  6 25  1  0  0  0  0
  6 30  1  0  0  0  0
  6 31  1  0  0  0  0
  6 32  1  0  0  0  0
  7 13  2  0  0  0  0
  8 26  1  0  0  0  0
  8 33  1  0  0  0  0
  9 11  2  0  0  0  0
 10 15  2  0  0  0  0
 10 27  1  0  0  0  0
 10 34  1  0  0  0  0
 11 12  1  0  0  0  0
 11 35  1  0  0  0  0
 12 26  2  0  0  0  0
 12 36  1  0  0  0  0
 13 18  1  0  0  0  0
 13 22  1  0  0  0  0
 14 24  2  0  0  0  0
 15 16  1  0  0  0  0
 17 25  1  0  0  0  0
 17 37  1  0  0  0  0
 17 38  1  0  0  0  0
 18 39  1  0  0  0  0
 19 20  1  0  0  0  0
 20 22  1  0  0  0  0
 20 27  2  0  0  0  0
 21 23  1  0  0  0  0
 21 40  1  0  0  0  0
 21 41  1  0  0  0  0
 21 42  1  0  0  0  0
 22 43  1  0  0  0  0
 25 44  1  0  0  0  0
 26 45  1  0  0  0  0
 27 46  1  0  0  0  0
M  END
> <compound_name>
MAT-POS-590ac91e-39

> <provenance>
{"isomeric_smiles": "C[C@H](CNC(=O)c1cc(=O)[nH]c2c1cc(cc2)F)Oc3ccccc3OC", "inchi": "InChI=1S/C20H19FN2O4/c1-12(27-18-6-4-3-5-17(18)26-2)11-22-20(25)15-10-19(24)23-16-8-7-13(21)9-14(15)16/h3-10,12H,11H2,1-2H3,(H,22,25)(H,23,24)/t12-/m1/s1", "inchi_key": "LZQQUMOUOYPMFQ-GFCCVEGCSA-N", "fixed_inchi": "InChI=1/C20H19FN2O4/c1-12(27-18-6-4-3-5-17(18)26-2)11-22-20(25)15-10-19(24)23-16-8-7-13(21)9-14(15)16/h3-10,12H,11H2,1-2H3,(H,22,25)(H,23,24)/t12-/m1/s1/f/h22-23H", "fixed_inchikey": "LZQQUMOUOYPMFQ-BMYSFGSANA-N"}

> <data_format>
sdf

$$$$
