LIG(A-305)
  -OEChem-06042511333D

 37 40  0     1  0  0  0  0  0999 V2000
    8.9459    1.3620   21.0450 O   0  0  0  0  0  0  0  0  0  0  0  0
    8.3929    0.2860   21.2591 C   0  0  0  0  0  0  0  0  0  0  0  0
    8.8140   -0.6410   22.3991 C   0  0  2  0  0  0  0  0  0  0  0  0
    8.2772   -0.0609   23.7001 C   0  0  0  0  0  0  0  0  0  0  0  0
    9.3513    0.7841   24.2039 O   0  0  0  0  0  0  0  0  0  0  0  0
   10.3040   -0.5310   22.6189 C   0  0  0  0  0  0  0  0  0  0  0  0
   10.5392    0.3240   23.6768 C   0  0  0  0  0  0  0  0  0  0  0  0
   11.8183    0.6439   24.0946 C   0  0  0  0  0  0  0  0  0  0  0  0
   12.8921    0.0888   23.4165 C   0  0  0  0  0  0  0  0  0  0  0  0
   11.3799   -1.1001   21.9518 C   0  0  0  0  0  0  0  0  0  0  0  0
   12.6590   -0.7742   22.3576 C   0  0  0  0  0  0  0  0  0  0  0  0
   14.0088   -1.4473   21.4945 Cl  0  0  0  0  0  0  0  0  0  0  0  0
    7.4877   -0.2430   20.4002 N   0  0  0  0  0  0  0  0  0  0  0  0
    6.7616    0.1970   19.3373 C   0  0  0  0  0  0  0  0  0  0  0  0
    6.0207    1.3860   19.3373 N   0  0  0  0  0  0  0  0  0  0  0  0
    5.7896    1.6090   18.0013 C   0  0  0  0  0  0  0  0  0  0  0  0
    6.3004    0.6679   17.2633 N   0  0  0  0  0  0  0  0  0  0  0  0
    6.9025   -0.2481   18.1033 N   0  0  0  0  0  0  0  0  0  0  0  0
    5.4399    2.1791   20.3924 C   0  0  0  0  0  0  0  0  0  0  0  0
    4.0589    2.3642   20.4295 C   0  0  0  0  0  0  0  0  0  0  0  0
    3.5101    3.2643   21.3335 C   0  0  0  0  0  0  0  0  0  0  0  0
    4.3232    3.9703   22.1994 C   0  0  0  0  0  0  0  0  0  0  0  0
    5.6922    3.7732   22.1752 C   0  0  0  0  0  0  0  0  0  0  0  0
    6.2580    2.8771   21.2802 C   0  0  0  0  0  0  0  0  0  0  0  0
    8.4864   -1.6784   22.2362 H   0  0  0  0  0  0  0  0  0  0  0  0
    7.3712    0.5345   23.5139 H   0  0  0  0  0  0  0  0  0  0  0  0
    8.0476   -0.8636   24.4164 H   0  0  0  0  0  0  0  0  0  0  0  0
   11.9765    1.3105   24.9295 H   0  0  0  0  0  0  0  0  0  0  0  0
   13.9034    0.3272   23.7113 H   0  0  0  0  0  0  0  0  0  0  0  0
   11.2198   -1.7843   21.1315 H   0  0  0  0  0  0  0  0  0  0  0  0
    7.3068   -1.2061   20.5994 H   0  0  0  0  0  0  0  0  0  0  0  0
    5.2505    2.4602   17.6124 H   0  0  0  0  0  0  0  0  0  0  0  0
    3.4189    1.8104   19.7586 H   0  0  0  0  0  0  0  0  0  0  0  0
    2.4408    3.4134   21.3600 H   0  0  0  0  0  0  0  0  0  0  0  0
    3.8905    4.6750   22.8941 H   0  0  0  0  0  0  0  0  0  0  0  0
    6.3249    4.3208   22.8580 H   0  0  0  0  0  0  0  0  0  0  0  0
    7.3266    2.7209   21.2710 H   0  0  0  0  0  0  0  0  0  0  0  0
  1  2  2  0  0  0  0
  2  3  1  0  0  0  0
  2 13  1  0  0  0  0
  3  4  1  0  0  0  0
  3  6  1  0  0  0  0
  3 25  1  0  0  0  0
  4  5  1  0  0  0  0
  4 26  1  0  0  0  0
  4 27  1  0  0  0  0
  5  7  1  0  0  0  0
  6  7  2  0  0  0  0
  6 10  1  0  0  0  0
  7  8  1  0  0  0  0
  8  9  2  0  0  0  0
  8 28  1  0  0  0  0
  9 11  1  0  0  0  0
  9 29  1  0  0  0  0
 10 11  2  0  0  0  0
 10 30  1  0  0  0  0
 11 12  1  0  0  0  0
 13 14  1  0  0  0  0
 13 31  1  0  0  0  0
 14 15  1  0  0  0  0
 14 18  2  0  0  0  0
 15 16  1  0  0  0  0
 15 19  1  0  0  0  0
 16 17  2  0  0  0  0
 16 32  1  0  0  0  0
 17 18  1  0  0  0  0
 19 20  2  0  0  0  0
 19 24  1  0  0  0  0
 20 21  1  0  0  0  0
 20 33  1  0  0  0  0
 21 22  2  0  0  0  0
 21 34  1  0  0  0  0
 22 23  1  0  0  0  0
 22 35  1  0  0  0  0
 23 24  2  0  0  0  0
 23 36  1  0  0  0  0
 24 37  1  0  0  0  0
M  END
> <compound_name>
NAU-LAT-8502cac5-6

> <provenance>
{"isomeric_smiles": "c1ccc(cc1)n2cnnc2NC(=O)[C@@H]3COc4c3cc(cc4)Cl", "inchi": "InChI=1S/C17H13ClN4O2/c18-11-6-7-15-13(8-11)14(9-24-15)16(23)20-17-21-19-10-22(17)12-4-2-1-3-5-12/h1-8,10,14H,9H2,(H,20,21,23)/t14-/m1/s1", "inchi_key": "MRZHVMLGHCTVMT-CQSZACIVSA-N", "fixed_inchi": "InChI=1/C17H13ClN4O2/c18-11-6-7-15-13(8-11)14(9-24-15)16(23)20-17-21-19-10-22(17)12-4-2-1-3-5-12/h1-8,10,14H,9H2,(H,20,21,23)/t14-/m1/s1/f/h20H", "fixed_inchikey": "MRZHVMLGHCTVMT-QIIRLMHINA-N"}

> <data_format>
sdf

$$$$
