LIG(A-307)
  -OEChem-06042511393D

 54 58  0     1  0  0  0  0  0999 V2000
    8.6321    6.8301   22.7655 N   0  0  0  0  0  0  0  0  0  0  0  0
    7.9592    5.9124   22.7760 C   0  0  0  0  0  0  0  0  0  0  0  0
    7.0519    4.7584   22.7473 C   0  0  0  0  0  0  0  0  0  0  0  0
    5.6963    4.9329   23.3953 C   0  0  0  0  0  0  0  0  0  0  0  0
    5.7992    4.9420   21.9184 C   0  0  0  0  0  0  0  0  0  0  0  0
    7.7361    3.3959   22.7675 C   0  0  0  0  0  0  0  0  0  0  0  0
    7.9598    2.6504   24.3708 S   0  0  0  0  0  0  0  0  0  0  0  0
    6.7256    2.0569   24.7790 O   0  0  0  0  0  0  0  0  0  0  0  0
    8.5788    3.6190   25.2195 O   0  0  0  0  0  0  0  0  0  0  0  0
    9.0263    1.4393   24.1637 N   0  0  1  0  0  0  0  0  0  0  0  0
   10.4289    1.6837   24.5177 C   0  0  0  0  0  0  0  0  0  0  0  0
    8.6494    0.0143   24.1126 C   0  0  0  0  0  0  0  0  0  0  0  0
    9.3601   -0.5781   22.8926 C   0  0  2  0  0  0  0  0  0  0  0  0
   10.8537   -0.2753   22.9389 C   0  0  0  0  0  0  0  0  0  0  0  0
   11.3271    0.8492   23.6375 C   0  0  0  0  0  0  0  0  0  0  0  0
   12.6738    1.1950   23.5431 C   0  0  0  0  0  0  0  0  0  0  0  0
   13.5561    0.4399   22.7942 C   0  0  0  0  0  0  0  0  0  0  0  0
   11.7570   -1.0556   22.2120 C   0  0  0  0  0  0  0  0  0  0  0  0
   13.0898   -0.6810   22.1477 C   0  0  0  0  0  0  0  0  0  0  0  0
   14.1948   -1.6244   21.1849 Cl  0  0  0  0  0  0  0  0  0  0  0  0
    8.7503    0.0773   21.6509 C   0  0  0  0  0  0  0  0  0  0  0  0
    9.2702    1.0470   21.1096 O   0  0  0  0  0  0  0  0  0  0  0  0
    7.5771   -0.4632   21.2263 N   0  0  0  0  0  0  0  0  0  0  0  0
    6.7809   -0.0292   20.1365 C   0  0  0  0  0  0  0  0  0  0  0  0
    5.6115    0.7580   20.3926 C   0  0  0  0  0  0  0  0  0  0  0  0
    5.0891    0.9986   21.6918 C   0  0  0  0  0  0  0  0  0  0  0  0
    3.9607    1.7510   21.8687 C   0  0  0  0  0  0  0  0  0  0  0  0
    3.2947    2.2988   20.7795 C   0  0  0  0  0  0  0  0  0  0  0  0
    3.7591    2.1001   19.5094 C   0  0  0  0  0  0  0  0  0  0  0  0
    4.9245    1.3249   19.2804 C   0  0  0  0  0  0  0  0  0  0  0  0
    5.4339    1.0633   17.9841 C   0  0  0  0  0  0  0  0  0  0  0  0
    6.5023    0.3193   17.7423 N   0  0  0  0  0  0  0  0  0  0  0  0
    7.1454   -0.2052   18.7976 C   0  0  0  0  0  0  0  0  0  0  0  0
    5.2196    4.0833   23.9062 H   0  0  0  0  0  0  0  0  0  0  0  0
    5.4622    5.8629   23.9341 H   0  0  0  0  0  0  0  0  0  0  0  0
    5.3989    4.0991   21.3358 H   0  0  0  0  0  0  0  0  0  0  0  0
    5.6414    5.8787   21.3637 H   0  0  0  0  0  0  0  0  0  0  0  0
    7.1312    2.7076   22.1590 H   0  0  0  0  0  0  0  0  0  0  0  0
    8.7297    3.5126   22.3103 H   0  0  0  0  0  0  0  0  0  0  0  0
   10.6624    2.7490   24.3736 H   0  0  0  0  0  0  0  0  0  0  0  0
   10.5931    1.4115   25.5708 H   0  0  0  0  0  0  0  0  0  0  0  0
    8.9761   -0.4985   25.0292 H   0  0  0  0  0  0  0  0  0  0  0  0
    7.5595   -0.0872   24.0043 H   0  0  0  0  0  0  0  0  0  0  0  0
    9.1989   -1.6657   22.8581 H   0  0  0  0  0  0  0  0  0  0  0  0
   13.0344    2.0692   24.0648 H   0  0  0  0  0  0  0  0  0  0  0  0
   14.5950    0.7252   22.7178 H   0  0  0  0  0  0  0  0  0  0  0  0
   11.4183   -1.9458   21.7030 H   0  0  0  0  0  0  0  0  0  0  0  0
    7.2392   -1.2528   21.7384 H   0  0  0  0  0  0  0  0  0  0  0  0
    5.5906    0.5812   22.5525 H   0  0  0  0  0  0  0  0  0  0  0  0
    3.5832    1.9212   22.8662 H   0  0  0  0  0  0  0  0  0  0  0  0
    2.4025    2.8865   20.9376 H   0  0  0  0  0  0  0  0  0  0  0  0
    3.2341    2.5372   18.6729 H   0  0  0  0  0  0  0  0  0  0  0  0
    4.9182    1.4979   17.1405 H   0  0  0  0  0  0  0  0  0  0  0  0
    8.0152   -0.8129   18.5963 H   0  0  0  0  0  0  0  0  0  0  0  0
  1  2  3  0  0  0  0
  2  3  1  0  0  0  0
  3  4  1  0  0  0  0
  3  5  1  0  0  0  0
  3  6  1  0  0  0  0
  4  5  1  0  0  0  0
  4 34  1  0  0  0  0
  4 35  1  0  0  0  0
  5 36  1  0  0  0  0
  5 37  1  0  0  0  0
  6  7  1  0  0  0  0
  6 38  1  0  0  0  0
  6 39  1  0  0  0  0
  7  8  2  0  0  0  0
  7  9  2  0  0  0  0
  7 10  1  0  0  0  0
 10 11  1  0  0  0  0
 10 12  1  0  0  0  0
 11 15  1  0  0  0  0
 11 40  1  0  0  0  0
 11 41  1  0  0  0  0
 12 13  1  0  0  0  0
 12 42  1  0  0  0  0
 12 43  1  0  0  0  0
 13 14  1  0  0  0  0
 13 21  1  0  0  0  0
 13 44  1  0  0  0  0
 14 15  2  0  0  0  0
 14 18  1  0  0  0  0
 15 16  1  0  0  0  0
 16 17  2  0  0  0  0
 16 45  1  0  0  0  0
 17 19  1  0  0  0  0
 17 46  1  0  0  0  0
 18 19  2  0  0  0  0
 18 47  1  0  0  0  0
 19 20  1  0  0  0  0
 21 22  2  0  0  0  0
 21 23  1  0  0  0  0
 23 24  1  0  0  0  0
 23 48  1  0  0  0  0
 24 25  2  0  0  0  0
 24 33  1  0  0  0  0
 25 26  1  0  0  0  0
 25 30  1  0  0  0  0
 26 27  2  0  0  0  0
 26 49  1  0  0  0  0
 27 28  1  0  0  0  0
 27 50  1  0  0  0  0
 28 29  2  0  0  0  0
 28 51  1  0  0  0  0
 29 30  1  0  0  0  0
 29 52  1  0  0  0  0
 30 31  2  0  0  0  0
 31 32  1  0  0  0  0
 31 53  1  0  0  0  0
 32 33  2  0  0  0  0
 33 54  1  0  0  0  0
M  END
> <compound_name>
MAT-POS-dc2604c4-1

> <provenance>
{"isomeric_smiles": "c1ccc2c(c1)cncc2NC(=O)[C@@H]3C[N@](Cc4c3cc(cc4)Cl)S(=O)(=O)CC5(CC5)C#N", "inchi": "InChI=1S/C24H21ClN4O3S/c25-18-6-5-17-12-29(33(31,32)15-24(14-26)7-8-24)13-21(20(17)9-18)23(30)28-22-11-27-10-16-3-1-2-4-19(16)22/h1-6,9-11,21H,7-8,12-13,15H2,(H,28,30)/t21-/m1/s1", "inchi_key": "YAYDSAMHSQCKIM-OAQYLSRUSA-N", "fixed_inchi": "InChI=1/C24H21ClN4O3S/c25-18-6-5-17-12-29(33(31,32)15-24(14-26)7-8-24)13-21(20(17)9-18)23(30)28-22-11-27-10-16-3-1-2-4-19(16)22/h1-6,9-11,21H,7-8,12-13,15H2,(H,28,30)/t21-/m1/s1/f/h28H", "fixed_inchikey": "YAYDSAMHSQCKIM-XMFZTVLVNA-N"}

> <data_format>
sdf

$$$$
