LIG(A-305)
  -OEChem-06042511333D

 29 30  0     0  0  0  0  0  0999 V2000
   14.3488   -1.4996   21.5205 Cl  0  0  0  0  0  0  0  0  0  0  0  0
   13.0199   -0.7015   22.3016 C   0  0  0  0  0  0  0  0  0  0  0  0
   13.2710    0.3905   23.1116 C   0  0  0  0  0  0  0  0  0  0  0  0
   12.2121    0.9746   23.7897 C   0  0  0  0  0  0  0  0  0  0  0  0
   10.9221    0.4997   23.6188 C   0  0  0  0  0  0  0  0  0  0  0  0
   11.7448   -1.1944   22.1168 C   0  0  0  0  0  0  0  0  0  0  0  0
   10.6829   -0.5563   22.7469 C   0  0  0  0  0  0  0  0  0  0  0  0
    9.3789   -0.8192   22.2760 N   0  0  0  0  0  0  0  0  0  0  0  0
    8.7368   -0.0492   21.3460 C   0  0  0  0  0  0  0  0  0  0  0  0
    9.2029    0.9978   20.9030 O   0  0  0  0  0  0  0  0  0  0  0  0
    7.5428   -0.5711   20.9312 N   0  0  0  0  0  0  0  0  0  0  0  0
    6.7567   -0.0201   19.8972 C   0  0  0  0  0  0  0  0  0  0  0  0
    7.2176   -0.0801   18.5842 C   0  0  0  0  0  0  0  0  0  0  0  0
    6.6205    0.5349   17.5612 N   0  0  0  0  0  0  0  0  0  0  0  0
    5.5076    1.2240   17.8143 C   0  0  0  0  0  0  0  0  0  0  0  0
    5.5968    0.7050   20.1433 C   0  0  0  0  0  0  0  0  0  0  0  0
    4.9457    1.3520   19.0934 C   0  0  0  0  0  0  0  0  0  0  0  0
    3.8148    2.0951   19.3215 N   0  0  0  0  0  0  0  0  0  0  0  0
   14.2728    0.7809   23.2141 H   0  0  0  0  0  0  0  0  0  0  0  0
   12.3943    1.8053   24.4555 H   0  0  0  0  0  0  0  0  0  0  0  0
   10.1038    0.9488   24.1619 H   0  0  0  0  0  0  0  0  0  0  0  0
   11.5748   -2.0602   21.4939 H   0  0  0  0  0  0  0  0  0  0  0  0
    8.8966   -1.6144   22.6435 H   0  0  0  0  0  0  0  0  0  0  0  0
    7.2061   -1.3940   21.3888 H   0  0  0  0  0  0  0  0  0  0  0  0
    8.1082   -0.6568   18.3825 H   0  0  0  0  0  0  0  0  0  0  0  0
    5.0107    1.7109   16.9883 H   0  0  0  0  0  0  0  0  0  0  0  0
    5.2003    0.7672   21.1460 H   0  0  0  0  0  0  0  0  0  0  0  0
    3.4894    2.4813   18.4584 H   0  0  0  0  0  0  0  0  0  0  0  0
    4.0252    2.8359   19.9593 H   0  0  0  0  0  0  0  0  0  0  0  0
  1  2  1  0  0  0  0
  2  3  2  0  0  0  0
  2  6  1  0  0  0  0
  3  4  1  0  0  0  0
  3 19  1  0  0  0  0
  4  5  2  0  0  0  0
  4 20  1  0  0  0  0
  5  7  1  0  0  0  0
  5 21  1  0  0  0  0
  6  7  2  0  0  0  0
  6 22  1  0  0  0  0
  7  8  1  0  0  0  0
  8  9  1  0  0  0  0
  8 23  1  0  0  0  0
  9 10  2  0  0  0  0
  9 11  1  0  0  0  0
 11 12  1  0  0  0  0
 11 24  1  0  0  0  0
 12 13  2  0  0  0  0
 12 16  1  0  0  0  0
 13 14  1  0  0  0  0
 13 25  1  0  0  0  0
 14 15  2  0  0  0  0
 15 17  1  0  0  0  0
 15 26  1  0  0  0  0
 16 17  2  0  0  0  0
 16 27  1  0  0  0  0
 17 18  1  0  0  0  0
 18 28  1  0  0  0  0
 18 29  1  0  0  0  0
M  END
> <compound_name>
DAR-DIA-23aa0b97-13

> <provenance>
{"isomeric_smiles": "c1cc(cc(c1)Cl)NC(=O)Nc2cc(cnc2)N", "inchi": "InChI=1S/C12H11ClN4O/c13-8-2-1-3-10(4-8)16-12(18)17-11-5-9(14)6-15-7-11/h1-7H,14H2,(H2,16,17,18)", "inchi_key": "NNDMILIBNSMJII-UHFFFAOYSA-N", "fixed_inchi": "InChI=1/C12H11ClN4O/c13-8-2-1-3-10(4-8)16-12(18)17-11-5-9(14)6-15-7-11/h1-7H,14H2,(H2,16,17,18)/f/h16-17H", "fixed_inchikey": "NNDMILIBNSMJII-XQMQJMAZNA-N"}

> <data_format>
sdf

$$$$
