LIG(A-306)
  -OEChem-06042511423D

 57 60  0     1  0  0  0  0  0999 V2000
   10.7938    2.9608   24.4836 O   0  0  0  0  0  0  0  0  0  0  0  0
   10.4568    1.8503   24.1190 C   0  0  0  0  0  0  0  0  0  0  0  0
    9.1590    1.4060   24.2438 N   0  0  0  0  0  0  0  0  0  0  0  0
    8.2313    2.1386   25.0854 C   0  0  0  0  0  0  0  0  0  0  0  0
    7.4594    3.2683   24.4231 C   0  0  0  0  0  0  0  0  0  0  0  0
    6.6186    3.8997   25.0582 O   0  0  0  0  0  0  0  0  0  0  0  0
    7.7339    3.5302   23.1493 N   0  0  0  0  0  0  0  0  0  0  0  0
    7.0077    4.5293   22.3873 C   0  0  0  0  0  0  0  0  0  0  0  0
   11.3891    0.9601   23.4066 C   0  0  0  0  0  0  0  0  0  0  0  0
   12.7378    1.3110   23.3193 C   0  0  0  0  0  0  0  0  0  0  0  0
   13.6293    0.4967   22.6443 C   0  0  0  0  0  0  0  0  0  0  0  0
   13.1691   -0.6635   22.0605 C   0  0  0  0  0  0  0  0  0  0  0  0
   14.2833   -1.6742   21.1864 Cl  0  0  0  0  0  0  0  0  0  0  0  0
   11.8375   -1.0254   22.1197 C   0  0  0  0  0  0  0  0  0  0  0  0
   10.9250   -0.1989   22.7728 C   0  0  0  0  0  0  0  0  0  0  0  0
    9.4454   -0.5120   22.7322 C   0  0  1  0  0  0  0  0  0  0  0  0
    8.7744    0.0130   23.9978 C   0  0  0  0  0  0  0  0  0  0  0  0
    8.8077    0.2022   21.5368 C   0  0  0  0  0  0  0  0  0  0  0  0
    9.2048    1.2954   21.1422 O   0  0  0  0  0  0  0  0  0  0  0  0
    7.7376   -0.4292   21.0106 N   0  0  0  0  0  0  0  0  0  0  0  0
    6.8894    0.0424   19.9899 C   0  0  0  0  0  0  0  0  0  0  0  0
    5.7128    0.7617   20.3665 C   0  0  0  0  0  0  0  0  0  0  0  0
    4.9559    1.3833   19.3346 C   0  0  0  0  0  0  0  0  0  0  0  0
    5.3956    1.2151   17.9987 C   0  0  0  0  0  0  0  0  0  0  0  0
    6.4733    0.5239   17.6493 N   0  0  0  0  0  0  0  0  0  0  0  0
    7.1913   -0.0404   18.6305 C   0  0  0  0  0  0  0  0  0  0  0  0
    5.2660    0.8949   21.7062 C   0  0  0  0  0  0  0  0  0  0  0  0
    4.1384    1.6255   22.0108 C   0  0  0  0  0  0  0  0  0  0  0  0
    3.4225    2.2489   20.9889 C   0  0  0  0  0  0  0  0  0  0  0  0
    3.8093    2.1357   19.6863 C   0  0  0  0  0  0  0  0  0  0  0  0
    3.7355    1.6994   23.3842 N   0  0  0  0  0  0  0  0  0  0  0  0
    2.4800    2.5094   24.0352 S   0  0  0  0  0  0  0  0  0  0  0  0
    1.3084    2.2084   23.2717 O   0  0  0  0  0  0  0  0  0  0  0  0
    2.4934    2.1895   25.4297 O   0  0  0  0  0  0  0  0  0  0  0  0
    2.8401    4.2147   23.8577 C   0  0  0  0  0  0  0  0  0  0  0  0
    7.4982    1.4193   25.4793 H   0  0  0  0  0  0  0  0  0  0  0  0
    8.8056    2.5701   25.9185 H   0  0  0  0  0  0  0  0  0  0  0  0
    8.4673    3.0203   22.6997 H   0  0  0  0  0  0  0  0  0  0  0  0
    7.4066    4.5714   21.3630 H   0  0  0  0  0  0  0  0  0  0  0  0
    5.9412    4.2617   22.3547 H   0  0  0  0  0  0  0  0  0  0  0  0
    7.1247    5.5124   22.8668 H   0  0  0  0  0  0  0  0  0  0  0  0
   13.0867    2.2228   23.7812 H   0  0  0  0  0  0  0  0  0  0  0  0
   14.6727    0.7670   22.5756 H   0  0  0  0  0  0  0  0  0  0  0  0
   11.5047   -1.9451   21.6617 H   0  0  0  0  0  0  0  0  0  0  0  0
    9.2897   -1.5976   22.6466 H   0  0  0  0  0  0  0  0  0  0  0  0
    7.6824   -0.0454   23.8792 H   0  0  0  0  0  0  0  0  0  0  0  0
    9.0838   -0.6044   24.8541 H   0  0  0  0  0  0  0  0  0  0  0  0
    7.5232   -1.3307   21.3865 H   0  0  0  0  0  0  0  0  0  0  0  0
    4.8166    1.6793   17.2140 H   0  0  0  0  0  0  0  0  0  0  0  0
    8.0696   -0.6014   18.3473 H   0  0  0  0  0  0  0  0  0  0  0  0
    5.8189    0.4156   22.5005 H   0  0  0  0  0  0  0  0  0  0  0  0
    2.5466    2.8314   21.2336 H   0  0  0  0  0  0  0  0  0  0  0  0
    3.2345    2.6254   18.9142 H   0  0  0  0  0  0  0  0  0  0  0  0
    3.9328    0.8530   23.8790 H   0  0  0  0  0  0  0  0  0  0  0  0
    2.0189    4.8097   24.2839 H   0  0  0  0  0  0  0  0  0  0  0  0
    3.7755    4.4488   24.3872 H   0  0  0  0  0  0  0  0  0  0  0  0
    2.9525    4.4564   22.7905 H   0  0  0  0  0  0  0  0  0  0  0  0
  1  2  2  0  0  0  0
  2  3  1  0  0  0  0
  2  9  1  0  0  0  0
  3  4  1  0  0  0  0
  3 17  1  0  0  0  0
  4  5  1  0  0  0  0
  4 36  1  0  0  0  0
  4 37  1  0  0  0  0
  5  6  2  0  0  0  0
  5  7  1  0  0  0  0
  7  8  1  0  0  0  0
  7 38  1  0  0  0  0
  8 39  1  0  0  0  0
  8 40  1  0  0  0  0
  8 41  1  0  0  0  0
  9 10  2  0  0  0  0
  9 15  1  0  0  0  0
 10 11  1  0  0  0  0
 10 42  1  0  0  0  0
 11 12  2  0  0  0  0
 11 43  1  0  0  0  0
 12 13  1  0  0  0  0
 12 14  1  0  0  0  0
 14 15  2  0  0  0  0
 14 44  1  0  0  0  0
 15 16  1  0  0  0  0
 16 17  1  0  0  0  0
 16 18  1  0  0  0  0
 16 45  1  0  0  0  0
 17 46  1  0  0  0  0
 17 47  1  0  0  0  0
 18 19  2  0  0  0  0
 18 20  1  0  0  0  0
 20 21  1  0  0  0  0
 20 48  1  0  0  0  0
 21 22  2  0  0  0  0
 21 26  1  0  0  0  0
 22 23  1  0  0  0  0
 22 27  1  0  0  0  0
 23 24  2  0  0  0  0
 23 30  1  0  0  0  0
 24 25  1  0  0  0  0
 24 49  1  0  0  0  0
 25 26  2  0  0  0  0
 26 50  1  0  0  0  0
 27 28  2  0  0  0  0
 27 51  1  0  0  0  0
 28 29  1  0  0  0  0
 28 31  1  0  0  0  0
 29 30  2  0  0  0  0
 29 52  1  0  0  0  0
 30 53  1  0  0  0  0
 31 32  1  0  0  0  0
 31 54  1  0  0  0  0
 32 33  2  0  0  0  0
 32 34  2  0  0  0  0
 32 35  1  0  0  0  0
 35 55  1  0  0  0  0
 35 56  1  0  0  0  0
 35 57  1  0  0  0  0
M  END
> <compound_name>
MAT-POS-2e8b2191-11

> <provenance>
{"isomeric_smiles": "CNC(=O)CN1C[C@H](c2cc(ccc2C1=O)Cl)C(=O)Nc3cncc4c3cc(cc4)NS(=O)(=O)C", "inchi": "InChI=1S/C23H22ClN5O5S/c1-25-21(30)12-29-11-19(18-7-14(24)4-6-16(18)23(29)32)22(31)27-20-10-26-9-13-3-5-15(8-17(13)20)28-35(2,33)34/h3-10,19,28H,11-12H2,1-2H3,(H,25,30)(H,27,31)/t19-/m1/s1", "inchi_key": "KEXXOTYEALJBRL-LJQANCHMSA-N", "fixed_inchi": "InChI=1/C23H22ClN5O5S/c1-25-21(30)12-29-11-19(18-7-14(24)4-6-16(18)23(29)32)22(31)27-20-10-26-9-13-3-5-15(8-17(13)20)28-35(2,33)34/h3-10,19,28H,11-12H2,1-2H3,(H,25,30)(H,27,31)/t19-/m1/s1/f/h25,27H", "fixed_inchikey": "KEXXOTYEALJBRL-ZVSVGCRFNA-N"}

> <data_format>
sdf

$$$$
