LIG(A-305)
  -OEChem-06042511333D

 48 49  0     1  0  0  0  0  0999 V2000
    9.2197    0.9186   20.9921 O   0  0  0  0  0  0  0  0  0  0  0  0
    8.5917   -0.0104   21.4941 C   0  0  0  0  0  0  0  0  0  0  0  0
    7.4036   -0.4573   21.0382 N   0  0  0  0  0  0  0  0  0  0  0  0
    6.6976    0.0518   19.9293 C   0  0  0  0  0  0  0  0  0  0  0  0
    7.2544   -0.0352   18.6542 C   0  0  0  0  0  0  0  0  0  0  0  0
    6.7474    0.5818   17.5833 N   0  0  0  0  0  0  0  0  0  0  0  0
    5.6294    1.2919   17.7574 C   0  0  0  0  0  0  0  0  0  0  0  0
    4.9766    1.4089   18.9725 C   0  0  0  0  0  0  0  0  0  0  0  0
    5.5216    0.7779   20.0754 C   0  0  0  0  0  0  0  0  0  0  0  0
    9.1378   -0.7645   22.6930 C   0  0  0  0  0  0  0  0  0  0  0  0
   10.5888   -0.6056   22.7839 N   0  3  2  0  0  0  0  0  0  0  0  0
   11.2547   -1.9136   22.7188 C   0  0  0  0  0  0  0  0  0  0  0  0
   12.7547   -1.7597   22.5796 C   0  0  0  0  0  0  0  0  0  0  0  0
   13.3219   -0.9028   23.7016 C   0  0  0  0  0  0  0  0  0  0  0  0
   12.5520    0.4073   23.8707 C   0  0  0  0  0  0  0  0  0  0  0  0
   11.0470    0.1654   23.9608 C   0  0  1  0  0  0  0  0  0  0  0  0
   10.2441    1.4304   24.2810 C   0  0  0  0  0  0  0  0  0  0  0  0
   10.7141    2.7314   23.6520 C   0  0  0  0  0  0  0  0  0  0  0  0
   10.7813    3.7754   24.6810 N   0  0  0  0  0  0  0  0  0  0  0  0
   10.6474    5.3424   24.3010 S   0  0  0  0  0  0  0  0  0  0  0  0
   10.2646    6.0244   25.4991 O   0  0  0  0  0  0  0  0  0  0  0  0
   11.8653    5.7193   23.6549 O   0  0  0  0  0  0  0  0  0  0  0  0
    9.3433    5.4995   23.1432 C   0  0  0  0  0  0  0  0  0  0  0  0
    6.9852   -1.2196   21.5320 H   0  0  0  0  0  0  0  0  0  0  0  0
    8.1440   -0.6339   18.5252 H   0  0  0  0  0  0  0  0  0  0  0  0
    5.2117    1.8032   16.9027 H   0  0  0  0  0  0  0  0  0  0  0  0
    4.0634    1.9794   19.0569 H   0  0  0  0  0  0  0  0  0  0  0  0
    5.0392    0.8484   21.0391 H   0  0  0  0  0  0  0  0  0  0  0  0
    8.6730   -0.3718   23.6094 H   0  0  0  0  0  0  0  0  0  0  0  0
    8.8969   -1.8326   22.5885 H   0  0  0  0  0  0  0  0  0  0  0  0
   10.8767   -0.0934   21.9747 H   0  0  0  0  0  0  0  0  0  0  0  0
   11.0357   -2.4737   23.6398 H   0  0  0  0  0  0  0  0  0  0  0  0
   10.8693   -2.4694   21.8513 H   0  0  0  0  0  0  0  0  0  0  0  0
   13.2230   -2.7543   22.6149 H   0  0  0  0  0  0  0  0  0  0  0  0
   12.9792   -1.2828   21.6142 H   0  0  0  0  0  0  0  0  0  0  0  0
   13.2680   -1.4697   24.6427 H   0  0  0  0  0  0  0  0  0  0  0  0
   14.3725   -0.6698   23.4734 H   0  0  0  0  0  0  0  0  0  0  0  0
   12.8898    0.9038   24.7923 H   0  0  0  0  0  0  0  0  0  0  0  0
   12.7584    1.0570   23.0074 H   0  0  0  0  0  0  0  0  0  0  0  0
   10.9079   -0.4962   24.8285 H   0  0  0  0  0  0  0  0  0  0  0  0
    9.2095    1.2579   23.9496 H   0  0  0  0  0  0  0  0  0  0  0  0
   10.2617    1.5657   25.3725 H   0  0  0  0  0  0  0  0  0  0  0  0
   11.7114    2.5863   23.2110 H   0  0  0  0  0  0  0  0  0  0  0  0
   10.0067    3.0356   22.8665 H   0  0  0  0  0  0  0  0  0  0  0  0
   10.3994    3.5203   25.5693 H   0  0  0  0  0  0  0  0  0  0  0  0
    9.2260    6.5568   22.8634 H   0  0  0  0  0  0  0  0  0  0  0  0
    9.5760    4.9067   22.2462 H   0  0  0  0  0  0  0  0  0  0  0  0
    8.4083    5.1333   23.5923 H   0  0  0  0  0  0  0  0  0  0  0  0
  1  2  2  0  0  0  0
  2  3  1  0  0  0  0
  2 10  1  0  0  0  0
  3  4  1  0  0  0  0
  3 24  1  0  0  0  0
  4  5  2  0  0  0  0
  4  9  1  0  0  0  0
  5  6  1  0  0  0  0
  5 25  1  0  0  0  0
  6  7  2  0  0  0  0
  7  8  1  0  0  0  0
  7 26  1  0  0  0  0
  8  9  2  0  0  0  0
  8 27  1  0  0  0  0
  9 28  1  0  0  0  0
 10 11  1  0  0  0  0
 10 29  1  0  0  0  0
 10 30  1  0  0  0  0
 11 12  1  0  0  0  0
 11 16  1  0  0  0  0
 11 31  1  0  0  0  0
 12 13  1  0  0  0  0
 12 32  1  0  0  0  0
 12 33  1  0  0  0  0
 13 14  1  0  0  0  0
 13 34  1  0  0  0  0
 13 35  1  0  0  0  0
 14 15  1  0  0  0  0
 14 36  1  0  0  0  0
 14 37  1  0  0  0  0
 15 16  1  0  0  0  0
 15 38  1  0  0  0  0
 15 39  1  0  0  0  0
 16 17  1  0  0  0  0
 16 40  1  0  0  0  0
 17 18  1  0  0  0  0
 17 41  1  0  0  0  0
 17 42  1  0  0  0  0
 18 19  1  0  0  0  0
 18 43  1  0  0  0  0
 18 44  1  0  0  0  0
 19 20  1  0  0  0  0
 19 45  1  0  0  0  0
 20 21  2  0  0  0  0
 20 22  2  0  0  0  0
 20 23  1  0  0  0  0
 23 46  1  0  0  0  0
 23 47  1  0  0  0  0
 23 48  1  0  0  0  0
M  CHG  1  11   1
M  END
> <compound_name>
BEN-DND-362d364a-10

> <provenance>
{"isomeric_smiles": "CS(=O)(=O)NCC[C@@H]1CCCC[N@H+]1CC(=O)Nc2cccnc2", "inchi": "InChI=1S/C15H24N4O3S/c1-23(21,22)17-9-7-14-6-2-3-10-19(14)12-15(20)18-13-5-4-8-16-11-13/h4-5,8,11,14,17H,2-3,6-7,9-10,12H2,1H3,(H,18,20)/p+1/t14-/m0/s1", "inchi_key": "PYUPQBFSNMZSNT-AWEZNQCLSA-O", "fixed_inchi": "InChI=1/C15H24N4O3S/c1-23(21,22)17-9-7-14-6-2-3-10-19(14)12-15(20)18-13-5-4-8-16-11-13/h4-5,8,11,14,17H,2-3,6-7,9-10,12H2,1H3,(H,18,20)/p+1/t14-/m0/s1/fC15H25N4O3S/h18-19H/q+1", "fixed_inchikey": "PYUPQBFSNMZSNT-ZBIQTZHBNA-O"}

> <data_format>
sdf

$$$$
