LIG(A-305)
  -OEChem-06042511323D

 23 23  0     0  0  0  0  0  0999 V2000
   13.7433   -2.4779   24.3195 C   0  0  0  0  0  0  0  0  0  0  0  0
   13.3833   -0.2439   23.5376 C   0  0  0  0  0  0  0  0  0  0  0  0
   12.6292    1.0811   23.6247 C   0  0  0  0  0  0  0  0  0  0  0  0
   11.4122    1.1530   24.2866 C   0  0  0  0  0  0  0  0  0  0  0  0
   10.7411    2.3660   24.3687 C   0  0  0  0  0  0  0  0  0  0  0  0
   11.2951    3.4991   23.7838 C   0  0  0  0  0  0  0  0  0  0  0  0
   12.5131    3.4241   23.1218 C   0  0  0  0  0  0  0  0  0  0  0  0
   13.1782    2.2152   23.0468 C   0  0  0  0  0  0  0  0  0  0  0  0
    9.0161    5.0730   22.9397 N   0  0  0  0  0  0  0  0  0  0  0  0
   13.2612   -1.1809   24.5736 O   0  0  0  0  0  0  0  0  0  0  0  0
   14.0783   -0.4588   22.6077 O   0  0  0  0  0  0  0  0  0  0  0  0
   11.3170    6.1921   23.4779 O   0  0  0  0  0  0  0  0  0  0  0  0
   10.1520    5.4219   25.2818 O   0  0  0  0  0  0  0  0  0  0  0  0
   10.4380    5.0900   23.8848 S   0  0  0  0  0  0  0  0  0  0  0  0
   13.5875   -3.1081   25.2076 H   0  0  0  0  0  0  0  0  0  0  0  0
   13.2021   -2.9092   23.4645 H   0  0  0  0  0  0  0  0  0  0  0  0
   14.8175   -2.4307   24.0875 H   0  0  0  0  0  0  0  0  0  0  0  0
   10.9877    0.2679   24.7369 H   0  0  0  0  0  0  0  0  0  0  0  0
    9.7941    2.4288   24.8840 H   0  0  0  0  0  0  0  0  0  0  0  0
   12.9389    4.3067   22.6676 H   0  0  0  0  0  0  0  0  0  0  0  0
   14.1281    2.1537   22.5366 H   0  0  0  0  0  0  0  0  0  0  0  0
    9.0726    5.7840   22.2388 H   0  0  0  0  0  0  0  0  0  0  0  0
    8.9177    4.1799   22.5007 H   0  0  0  0  0  0  0  0  0  0  0  0
  1 10  1  0  0  0  0
  1 15  1  0  0  0  0
  1 16  1  0  0  0  0
  1 17  1  0  0  0  0
  2  3  1  0  0  0  0
  2 10  1  0  0  0  0
  2 11  2  0  0  0  0
  3  4  2  0  0  0  0
  3  8  1  0  0  0  0
  4  5  1  0  0  0  0
  4 18  1  0  0  0  0
  5  6  2  0  0  0  0
  5 19  1  0  0  0  0
  6  7  1  0  0  0  0
  6 14  1  0  0  0  0
  7  8  2  0  0  0  0
  7 20  1  0  0  0  0
  8 21  1  0  0  0  0
  9 14  1  0  0  0  0
  9 22  1  0  0  0  0
  9 23  1  0  0  0  0
 12 14  2  0  0  0  0
 13 14  2  0  0  0  0
M  END
> <compound_name>
MAT-POS-7dfc56d9-1

> <provenance>
{"isomeric_smiles": "COC(=O)c1ccc(cc1)S(=O)(=O)N", "inchi": "InChI=1S/C8H9NO4S/c1-13-8(10)6-2-4-7(5-3-6)14(9,11)12/h2-5H,1H3,(H2,9,11,12)", "inchi_key": "XLOVNJUCAFIANM-UHFFFAOYSA-N", "fixed_inchi": "InChI=1/C8H9NO4S/c1-13-8(10)6-2-4-7(5-3-6)14(9,11)12/h2-5H,1H3,(H2,9,11,12)/f/h9H2", "fixed_inchikey": "XLOVNJUCAFIANM-JSGPKCTENA-N"}

> <data_format>
sdf

$$$$
