LIG(A-305)
  -OEChem-06042511363D

 37 39  0     0  0  0  0  0  0999 V2000
   13.9226   -1.8403   21.1714 Cl  0  0  0  0  0  0  0  0  0  0  0  0
   12.8257   -0.9603   22.1914 C   0  0  0  0  0  0  0  0  0  0  0  0
   13.3337   -0.0982   23.1433 C   0  0  0  0  0  0  0  0  0  0  0  0
   12.4587    0.4758   24.0524 C   0  0  0  0  0  0  0  0  0  0  0  0
   11.0997    0.2097   23.9765 C   0  0  0  0  0  0  0  0  0  0  0  0
   11.4747   -1.2214   22.0955 C   0  0  0  0  0  0  0  0  0  0  0  0
   10.5937   -0.6224   22.9885 C   0  0  0  0  0  0  0  0  0  0  0  0
    9.1067   -0.8164   22.8257 C   0  0  0  0  0  0  0  0  0  0  0  0
    8.5746   -0.0865   21.6057 C   0  0  0  0  0  0  0  0  0  0  0  0
    9.2755    0.6895   20.9746 O   0  0  0  0  0  0  0  0  0  0  0  0
    7.2666   -0.2716   21.2848 N   0  0  0  0  0  0  0  0  0  0  0  0
    6.2797   -0.8566   22.2049 C   0  0  0  0  0  0  0  0  0  0  0  0
    5.3627    0.2484   22.7149 C   0  0  0  0  0  0  0  0  0  0  0  0
    4.8195    1.1583   21.6018 C   0  0  0  0  0  0  0  0  0  0  0  0
    5.4565    0.9283   20.2488 C   0  0  0  0  0  0  0  0  0  0  0  0
    4.8344    1.3972   19.0868 C   0  0  0  0  0  0  0  0  0  0  0  0
    3.6293    2.0701   19.1449 N   0  0  0  0  0  0  0  0  0  0  0  0
    6.6605    0.2213   20.1118 C   0  0  0  0  0  0  0  0  0  0  0  0
    7.1974    0.0252   18.8457 C   0  0  0  0  0  0  0  0  0  0  0  0
    6.6303    0.4642   17.7208 N   0  0  0  0  0  0  0  0  0  0  0  0
    5.4783    1.1351   17.8328 C   0  0  0  0  0  0  0  0  0  0  0  0
   14.3900    0.1239   23.1787 H   0  0  0  0  0  0  0  0  0  0  0  0
   12.8366    1.1323   24.8222 H   0  0  0  0  0  0  0  0  0  0  0  0
   10.4277    0.6554   24.6948 H   0  0  0  0  0  0  0  0  0  0  0  0
   11.1034   -1.8875   21.3308 H   0  0  0  0  0  0  0  0  0  0  0  0
    8.8973   -1.8909   22.7174 H   0  0  0  0  0  0  0  0  0  0  0  0
    8.5970   -0.4319   23.7214 H   0  0  0  0  0  0  0  0  0  0  0  0
    5.6846   -1.6146   21.6744 H   0  0  0  0  0  0  0  0  0  0  0  0
    6.7990   -1.3260   23.0533 H   0  0  0  0  0  0  0  0  0  0  0  0
    4.5100   -0.2174   23.2305 H   0  0  0  0  0  0  0  0  0  0  0  0
    5.9275    0.8685   23.4266 H   0  0  0  0  0  0  0  0  0  0  0  0
    3.7377    0.9819   21.5087 H   0  0  0  0  0  0  0  0  0  0  0  0
    4.9967    2.2040   21.8936 H   0  0  0  0  0  0  0  0  0  0  0  0
    3.3444    2.3248   18.2208 H   0  0  0  0  0  0  0  0  0  0  0  0
    3.7341    2.8952   19.7002 H   0  0  0  0  0  0  0  0  0  0  0  0
    8.1295   -0.5146   18.7675 H   0  0  0  0  0  0  0  0  0  0  0  0
    5.0084    1.4986   16.9309 H   0  0  0  0  0  0  0  0  0  0  0  0
  1  2  1  0  0  0  0
  2  3  2  0  0  0  0
  2  6  1  0  0  0  0
  3  4  1  0  0  0  0
  3 22  1  0  0  0  0
  4  5  2  0  0  0  0
  4 23  1  0  0  0  0
  5  7  1  0  0  0  0
  5 24  1  0  0  0  0
  6  7  2  0  0  0  0
  6 25  1  0  0  0  0
  7  8  1  0  0  0  0
  8  9  1  0  0  0  0
  8 26  1  0  0  0  0
  8 27  1  0  0  0  0
  9 10  2  0  0  0  0
  9 11  1  0  0  0  0
 11 12  1  0  0  0  0
 11 18  1  0  0  0  0
 12 13  1  0  0  0  0
 12 28  1  0  0  0  0
 12 29  1  0  0  0  0
 13 14  1  0  0  0  0
 13 30  1  0  0  0  0
 13 31  1  0  0  0  0
 14 15  1  0  0  0  0
 14 32  1  0  0  0  0
 14 33  1  0  0  0  0
 15 16  2  0  0  0  0
 15 18  1  0  0  0  0
 16 17  1  0  0  0  0
 16 21  1  0  0  0  0
 17 34  1  0  0  0  0
 17 35  1  0  0  0  0
 18 19  2  0  0  0  0
 19 20  1  0  0  0  0
 19 36  1  0  0  0  0
 20 21  2  0  0  0  0
 21 37  1  0  0  0  0
M  END
> <compound_name>
ALP-POS-cd485364-2

> <provenance>
{"isomeric_smiles": "c1cc(cc(c1)Cl)CC(=O)N2CCCc3c2cncc3N", "inchi": "InChI=1S/C16H16ClN3O/c17-12-4-1-3-11(7-12)8-16(21)20-6-2-5-13-14(18)9-19-10-15(13)20/h1,3-4,7,9-10H,2,5-6,8,18H2", "inchi_key": "KFDIFJWRZNKQEO-UHFFFAOYSA-N", "fixed_inchi": "InChI=1/C16H16ClN3O/c17-12-4-1-3-11(7-12)8-16(21)20-6-2-5-13-14(18)9-19-10-15(13)20/h1,3-4,7,9-10H,2,5-6,8,18H2", "fixed_inchikey": "KFDIFJWRZNKQEO-UHFFFAOYNA-N"}

> <data_format>
sdf

$$$$
