LIG(A-306)
  -OEChem-06042511423D

 52 56  0     1  0  0  0  0  0999 V2000
   14.1210   -1.5959   21.2398 Cl  0  0  0  0  0  0  0  0  0  0  0  0
   12.9430   -0.7590   22.2149 C   0  0  0  0  0  0  0  0  0  0  0  0
   11.6101   -1.1141   22.1140 C   0  0  0  0  0  0  0  0  0  0  0  0
   13.3630    0.2231   23.0809 C   0  0  0  0  0  0  0  0  0  0  0  0
   12.4331    0.8420   23.8940 C   0  0  0  0  0  0  0  0  0  0  0  0
   11.0821    0.4959   23.8391 C   0  0  0  0  0  0  0  0  0  0  0  0
   10.1202    1.1498   24.8062 C   0  0  0  0  0  0  0  0  0  0  0  0
    8.7241    0.9537   24.4054 N   0  0  0  0  0  0  0  0  0  0  0  0
    7.7701    1.8926   24.5265 C   0  0  0  0  0  0  0  0  0  0  0  0
    6.5741    1.6255   24.4906 O   0  0  0  0  0  0  0  0  0  0  0  0
    8.2030    3.2976   24.6894 C   0  0  0  0  0  0  0  0  0  0  0  0
    8.8610    3.9327   25.7444 C   0  0  0  0  0  0  0  0  0  0  0  0
    9.0849    5.2277   25.2943 C   0  0  0  0  0  0  0  0  0  0  0  0
    8.6097    5.4327   24.0704 N   0  0  0  0  0  0  0  0  0  0  0  0
    8.0508    4.2386   23.7164 N   0  0  0  0  0  0  0  0  0  0  0  0
    7.3437    4.1476   22.4445 C   0  0  0  0  0  0  0  0  0  0  0  0
   10.6631   -0.4792   22.9201 C   0  0  0  0  0  0  0  0  0  0  0  0
    9.1881   -0.8213   22.7933 C   0  0  1  0  0  0  0  0  0  0  0  0
    8.4322   -0.4413   24.0674 C   0  0  0  0  0  0  0  0  0  0  0  0
    8.6269    0.0037   21.6354 C   0  0  0  0  0  0  0  0  0  0  0  0
    9.1348    1.0707   21.2823 O   0  0  0  0  0  0  0  0  0  0  0  0
    7.5369   -0.5374   21.0415 N   0  0  0  0  0  0  0  0  0  0  0  0
    6.8297   -0.0475   19.9206 C   0  0  0  0  0  0  0  0  0  0  0  0
    5.7057    0.8124   20.1337 C   0  0  0  0  0  0  0  0  0  0  0  0
    5.1248    1.0524   21.4047 C   0  0  0  0  0  0  0  0  0  0  0  0
    4.0208    1.8483   21.5369 C   0  0  0  0  0  0  0  0  0  0  0  0
    3.4536    2.4623   20.4249 C   0  0  0  0  0  0  0  0  0  0  0  0
    3.9795    2.2683   19.1799 C   0  0  0  0  0  0  0  0  0  0  0  0
    5.1065    1.4254   18.9968 C   0  0  0  0  0  0  0  0  0  0  0  0
    5.6414    1.1155   17.7227 C   0  0  0  0  0  0  0  0  0  0  0  0
    6.6614    0.2905   17.5226 N   0  0  0  0  0  0  0  0  0  0  0  0
    7.2306   -0.2654   18.6015 C   0  0  0  0  0  0  0  0  0  0  0  0
   11.3032   -1.8784   21.4155 H   0  0  0  0  0  0  0  0  0  0  0  0
   14.4043    0.5063   23.1247 H   0  0  0  0  0  0  0  0  0  0  0  0
   12.7572    1.6069   24.5840 H   0  0  0  0  0  0  0  0  0  0  0  0
   10.2681    0.7130   25.8049 H   0  0  0  0  0  0  0  0  0  0  0  0
   10.3314    2.2287   24.8430 H   0  0  0  0  0  0  0  0  0  0  0  0
    9.1356    3.5102   26.6996 H   0  0  0  0  0  0  0  0  0  0  0  0
    9.5898    5.9850   25.8756 H   0  0  0  0  0  0  0  0  0  0  0  0
    6.2826    3.9240   22.6295 H   0  0  0  0  0  0  0  0  0  0  0  0
    7.4286    5.1044   21.9087 H   0  0  0  0  0  0  0  0  0  0  0  0
    7.7865    3.3457   21.8355 H   0  0  0  0  0  0  0  0  0  0  0  0
    9.0638   -1.8946   22.5869 H   0  0  0  0  0  0  0  0  0  0  0  0
    8.7521   -1.0941   24.8930 H   0  0  0  0  0  0  0  0  0  0  0  0
    7.3512   -0.5611   23.9029 H   0  0  0  0  0  0  0  0  0  0  0  0
    7.1911   -1.3848   21.4442 H   0  0  0  0  0  0  0  0  0  0  0  0
    5.5613    0.5993   22.2826 H   0  0  0  0  0  0  0  0  0  0  0  0
    3.5852    2.0016   22.5132 H   0  0  0  0  0  0  0  0  0  0  0  0
    2.5893    3.0982   20.5475 H   0  0  0  0  0  0  0  0  0  0  0  0
    3.5342    2.7602   18.3277 H   0  0  0  0  0  0  0  0  0  0  0  0
    5.1903    1.5802   16.8584 H   0  0  0  0  0  0  0  0  0  0  0  0
    8.0633   -0.9333   18.4374 H   0  0  0  0  0  0  0  0  0  0  0  0
  1  2  1  0  0  0  0
  2  3  2  0  0  0  0
  2  4  1  0  0  0  0
  3 17  1  0  0  0  0
  3 33  1  0  0  0  0
  4  5  2  0  0  0  0
  4 34  1  0  0  0  0
  5  6  1  0  0  0  0
  5 35  1  0  0  0  0
  6  7  1  0  0  0  0
  6 17  2  0  0  0  0
  7  8  1  0  0  0  0
  7 36  1  0  0  0  0
  7 37  1  0  0  0  0
  8  9  1  0  0  0  0
  8 19  1  0  0  0  0
  9 10  2  0  0  0  0
  9 11  1  0  0  0  0
 11 12  2  0  0  0  0
 11 15  1  0  0  0  0
 12 13  1  0  0  0  0
 12 38  1  0  0  0  0
 13 14  2  0  0  0  0
 13 39  1  0  0  0  0
 14 15  1  0  0  0  0
 15 16  1  0  0  0  0
 16 40  1  0  0  0  0
 16 41  1  0  0  0  0
 16 42  1  0  0  0  0
 17 18  1  0  0  0  0
 18 19  1  0  0  0  0
 18 20  1  0  0  0  0
 18 43  1  0  0  0  0
 19 44  1  0  0  0  0
 19 45  1  0  0  0  0
 20 21  2  0  0  0  0
 20 22  1  0  0  0  0
 22 23  1  0  0  0  0
 22 46  1  0  0  0  0
 23 24  2  0  0  0  0
 23 32  1  0  0  0  0
 24 25  1  0  0  0  0
 24 29  1  0  0  0  0
 25 26  2  0  0  0  0
 25 47  1  0  0  0  0
 26 27  1  0  0  0  0
 26 48  1  0  0  0  0
 27 28  2  0  0  0  0
 27 49  1  0  0  0  0
 28 29  1  0  0  0  0
 28 50  1  0  0  0  0
 29 30  2  0  0  0  0
 30 31  1  0  0  0  0
 30 51  1  0  0  0  0
 31 32  2  0  0  0  0
 32 52  1  0  0  0  0
M  END
> <compound_name>
MAT-POS-4223bc15-40

> <provenance>
{"isomeric_smiles": "Cn1c(ccn1)C(=O)N2Cc3ccc(cc3[C@@H](C2)C(=O)Nc4cncc5c4cccc5)Cl", "inchi": "InChI=1S/C24H20ClN5O2/c1-29-22(8-9-27-29)24(32)30-13-16-6-7-17(25)10-19(16)20(14-30)23(31)28-21-12-26-11-15-4-2-3-5-18(15)21/h2-12,20H,13-14H2,1H3,(H,28,31)/t20-/m1/s1", "inchi_key": "LZTSPUJFXOCHAI-HXUWFJFHSA-N", "fixed_inchi": "InChI=1/C24H20ClN5O2/c1-29-22(8-9-27-29)24(32)30-13-16-6-7-17(25)10-19(16)20(14-30)23(31)28-21-12-26-11-15-4-2-3-5-18(15)21/h2-12,20H,13-14H2,1H3,(H,28,31)/t20-/m1/s1/f/h28H", "fixed_inchikey": "LZTSPUJFXOCHAI-PQCKPKJFNA-N"}

> <data_format>
sdf

$$$$
