LIG(A-305)
  -OEChem-06042511303D

 44 46  0     0  0  0  0  0  0999 V2000
    9.5942    0.9903   21.0808 O   0  0  0  0  0  0  0  0  0  0  0  0
    9.2571   -0.1566   21.3559 C   0  0  0  0  0  0  0  0  0  0  0  0
    8.1179   -0.7275   20.9051 N   0  0  0  0  0  0  0  0  0  0  0  0
    7.2368   -0.2074   19.9302 C   0  0  0  0  0  0  0  0  0  0  0  0
    6.0110    0.3988   20.3473 C   0  0  0  0  0  0  0  0  0  0  0  0
    5.5872    0.4698   21.6954 C   0  0  0  0  0  0  0  0  0  0  0  0
    4.4303    1.1070   22.0336 C   0  0  0  0  0  0  0  0  0  0  0  0
    3.6363    1.6951   21.0627 C   0  0  0  0  0  0  0  0  0  0  0  0
    3.9961    1.6460   19.7476 C   0  0  0  0  0  0  0  0  0  0  0  0
    5.1929    1.0048   19.3524 C   0  0  0  0  0  0  0  0  0  0  0  0
    5.6437    0.9647   18.0144 C   0  0  0  0  0  0  0  0  0  0  0  0
    6.7846    0.4146   17.6322 N   0  0  0  0  0  0  0  0  0  0  0  0
    7.5437   -0.1565   18.5751 C   0  0  0  0  0  0  0  0  0  0  0  0
   10.1281   -1.0537   22.2208 C   0  0  0  0  0  0  0  0  0  0  0  0
    9.3671   -1.8986   23.1339 N   0  3  0  0  0  0  0  0  0  0  0  0
    8.7224   -1.1015   24.1780 C   0  0  0  0  0  0  0  0  0  0  0  0
    7.8094   -1.9824   25.0161 C   0  0  0  0  0  0  0  0  0  0  0  0
   10.2221   -2.9027   23.7758 C   0  0  0  0  0  0  0  0  0  0  0  0
    9.3721   -3.8586   24.6050 C   0  0  0  0  0  0  0  0  0  0  0  0
    8.5623   -3.1134   25.5821 N   0  0  0  0  0  0  0  0  0  0  0  0
    8.4125   -3.4554   26.8901 C   0  0  0  0  0  0  0  0  0  0  0  0
    7.6907   -2.8003   27.6292 O   0  0  0  0  0  0  0  0  0  0  0  0
    9.1264   -4.6745   27.3930 C   0  0  0  0  0  0  0  0  0  0  0  0
    7.8727   -1.6113   21.3034 H   0  0  0  0  0  0  0  0  0  0  0  0
    6.1887    0.0130   22.4673 H   0  0  0  0  0  0  0  0  0  0  0  0
    4.1296    1.1538   23.0698 H   0  0  0  0  0  0  0  0  0  0  0  0
    2.7240    2.1970   21.3494 H   0  0  0  0  0  0  0  0  0  0  0  0
    3.3611    2.1009   19.0017 H   0  0  0  0  0  0  0  0  0  0  0  0
    5.0179    1.4111   17.2558 H   0  0  0  0  0  0  0  0  0  0  0  0
    8.4688   -0.6145   18.2579 H   0  0  0  0  0  0  0  0  0  0  0  0
   10.7232   -1.7021   21.5609 H   0  0  0  0  0  0  0  0  0  0  0  0
   10.8013   -0.4178   22.8144 H   0  0  0  0  0  0  0  0  0  0  0  0
    8.6576   -2.3729   22.6127 H   0  0  0  0  0  0  0  0  0  0  0  0
    9.4930   -0.6564   24.8246 H   0  0  0  0  0  0  0  0  0  0  0  0
    8.1287   -0.3017   23.7111 H   0  0  0  0  0  0  0  0  0  0  0  0
    7.3826   -1.3853   25.8355 H   0  0  0  0  0  0  0  0  0  0  0  0
    6.9974   -2.3687   24.3825 H   0  0  0  0  0  0  0  0  0  0  0  0
   10.7600   -3.4709   23.0026 H   0  0  0  0  0  0  0  0  0  0  0  0
   10.9472   -2.3982   24.4313 H   0  0  0  0  0  0  0  0  0  0  0  0
    8.7046   -4.4221   23.9365 H   0  0  0  0  0  0  0  0  0  0  0  0
   10.0314   -4.5581   25.1397 H   0  0  0  0  0  0  0  0  0  0  0  0
    8.8836   -4.8304   28.4544 H   0  0  0  0  0  0  0  0  0  0  0  0
    8.8076   -5.5520   26.8114 H   0  0  0  0  0  0  0  0  0  0  0  0
   10.2119   -4.5355   27.2818 H   0  0  0  0  0  0  0  0  0  0  0  0
  1  2  2  0  0  0  0
  2  3  1  0  0  0  0
  2 14  1  0  0  0  0
  3  4  1  0  0  0  0
  3 24  1  0  0  0  0
  4  5  2  0  0  0  0
  4 13  1  0  0  0  0
  5  6  1  0  0  0  0
  5 10  1  0  0  0  0
  6  7  2  0  0  0  0
  6 25  1  0  0  0  0
  7  8  1  0  0  0  0
  7 26  1  0  0  0  0
  8  9  2  0  0  0  0
  8 27  1  0  0  0  0
  9 10  1  0  0  0  0
  9 28  1  0  0  0  0
 10 11  2  0  0  0  0
 11 12  1  0  0  0  0
 11 29  1  0  0  0  0
 12 13  2  0  0  0  0
 13 30  1  0  0  0  0
 14 15  1  0  0  0  0
 14 31  1  0  0  0  0
 14 32  1  0  0  0  0
 15 16  1  0  0  0  0
 15 18  1  0  0  0  0
 15 33  1  0  0  0  0
 16 17  1  0  0  0  0
 16 34  1  0  0  0  0
 16 35  1  0  0  0  0
 17 20  1  0  0  0  0
 17 36  1  0  0  0  0
 17 37  1  0  0  0  0
 18 19  1  0  0  0  0
 18 38  1  0  0  0  0
 18 39  1  0  0  0  0
 19 20  1  0  0  0  0
 19 40  1  0  0  0  0
 19 41  1  0  0  0  0
 20 21  1  0  0  0  0
 21 22  2  0  0  0  0
 21 23  1  0  0  0  0
 23 42  1  0  0  0  0
 23 43  1  0  0  0  0
 23 44  1  0  0  0  0
M  CHG  1  15   1
M  END
> <compound_name>
ALP-POS-6747fa38-1

> <provenance>
{"isomeric_smiles": "CC(=O)N1CC[NH+](CC1)CC(=O)Nc2cncc3c2cccc3", "inchi": "InChI=1S/C17H20N4O2/c1-13(22)21-8-6-20(7-9-21)12-17(23)19-16-11-18-10-14-4-2-3-5-15(14)16/h2-5,10-11H,6-9,12H2,1H3,(H,19,23)/p+1", "inchi_key": "SIFMSWJDYLFFPS-UHFFFAOYSA-O", "fixed_inchi": "InChI=1/C17H20N4O2/c1-13(22)21-8-6-20(7-9-21)12-17(23)19-16-11-18-10-14-4-2-3-5-15(14)16/h2-5,10-11H,6-9,12H2,1H3,(H,19,23)/p+1/fC17H21N4O2/h19-20H/q+1", "fixed_inchikey": "SIFMSWJDYLFFPS-BMDLVFBTNA-O"}

> <data_format>
sdf

$$$$
