LIG(A-305)
  -OEChem-06042511353D

 37 38  0     1  0  0  0  0  0999 V2000
   13.8710   -1.8806   21.4005 Cl  0  0  0  0  0  0  0  0  0  0  0  0
   12.7360   -0.8846   22.2706 C   0  0  0  0  0  0  0  0  0  0  0  0
   13.1801    0.2684   22.8856 C   0  0  0  0  0  0  0  0  0  0  0  0
   12.2501    1.0974   23.4977 C   0  0  0  0  0  0  0  0  0  0  0  0
   10.9051    0.7585   23.4957 C   0  0  0  0  0  0  0  0  0  0  0  0
   11.4040   -1.2415   22.2716 C   0  0  0  0  0  0  0  0  0  0  0  0
   10.4681   -0.4065   22.8777 C   0  0  0  0  0  0  0  0  0  0  0  0
    8.9790   -0.7204   22.7607 C   0  0  1  0  0  0  0  0  0  0  0  0
    8.2451   -0.2844   24.0227 C   0  0  0  0  0  0  0  0  0  0  0  0
    7.5511    0.6926   24.1078 O   0  0  0  0  0  0  0  0  0  0  0  0
    8.5161   -1.1115   25.0347 O   0  0  0  0  0  0  0  0  0  0  0  0
    8.0981   -0.6875   26.3537 C   0  0  0  0  0  0  0  0  0  0  0  0
    8.4070    0.0336   21.5347 C   0  0  0  0  0  0  0  0  0  0  0  0
    8.9191    1.0626   21.1098 O   0  0  0  0  0  0  0  0  0  0  0  0
    7.3130   -0.5293   20.9887 N   0  0  0  0  0  0  0  0  0  0  0  0
    6.6130    0.0678   19.9078 C   0  0  0  0  0  0  0  0  0  0  0  0
    5.4610    0.8328   20.1588 C   0  0  0  0  0  0  0  0  0  0  0  0
    4.9101    1.0108   21.5519 C   0  0  0  0  0  0  0  0  0  0  0  0
    4.8641    1.4669   19.0749 C   0  0  0  0  0  0  0  0  0  0  0  0
    5.4100    1.3229   17.8129 C   0  0  0  0  0  0  0  0  0  0  0  0
    6.5030    0.5919   17.5598 N   0  0  0  0  0  0  0  0  0  0  0  0
    7.0850   -0.0202   18.5968 C   0  0  0  0  0  0  0  0  0  0  0  0
   14.2302    0.5205   22.8906 H   0  0  0  0  0  0  0  0  0  0  0  0
   12.5748    2.0092   23.9769 H   0  0  0  0  0  0  0  0  0  0  0  0
   10.1900    1.4071   23.9798 H   0  0  0  0  0  0  0  0  0  0  0  0
   11.0882   -2.1631   21.8053 H   0  0  0  0  0  0  0  0  0  0  0  0
    8.8439   -1.8021   22.6136 H   0  0  0  0  0  0  0  0  0  0  0  0
    8.3792   -1.4533   27.0918 H   0  0  0  0  0  0  0  0  0  0  0  0
    8.5905    0.2631   26.6062 H   0  0  0  0  0  0  0  0  0  0  0  0
    7.0068   -0.5499   26.3658 H   0  0  0  0  0  0  0  0  0  0  0  0
    6.9820   -1.3980   21.3573 H   0  0  0  0  0  0  0  0  0  0  0  0
    5.6681    1.4914   22.1879 H   0  0  0  0  0  0  0  0  0  0  0  0
    4.0107    1.6429   21.5123 H   0  0  0  0  0  0  0  0  0  0  0  0
    4.6493    0.0279   21.9713 H   0  0  0  0  0  0  0  0  0  0  0  0
    3.9787    2.0686   19.2180 H   0  0  0  0  0  0  0  0  0  0  0  0
    4.9294    1.8269   16.9873 H   0  0  0  0  0  0  0  0  0  0  0  0
    7.9673   -0.6143   18.4100 H   0  0  0  0  0  0  0  0  0  0  0  0
  1  2  1  0  0  0  0
  2  3  2  0  0  0  0
  2  6  1  0  0  0  0
  3  4  1  0  0  0  0
  3 23  1  0  0  0  0
  4  5  2  0  0  0  0
  4 24  1  0  0  0  0
  5  7  1  0  0  0  0
  5 25  1  0  0  0  0
  6  7  2  0  0  0  0
  6 26  1  0  0  0  0
  7  8  1  0  0  0  0
  8  9  1  0  0  0  0
  8 13  1  0  0  0  0
  8 27  1  0  0  0  0
  9 10  2  0  0  0  0
  9 11  1  0  0  0  0
 11 12  1  0  0  0  0
 12 28  1  0  0  0  0
 12 29  1  0  0  0  0
 12 30  1  0  0  0  0
 13 14  2  0  0  0  0
 13 15  1  0  0  0  0
 15 16  1  0  0  0  0
 15 31  1  0  0  0  0
 16 17  2  0  0  0  0
 16 22  1  0  0  0  0
 17 18  1  0  0  0  0
 17 19  1  0  0  0  0
 18 32  1  0  0  0  0
 18 33  1  0  0  0  0
 18 34  1  0  0  0  0
 19 20  2  0  0  0  0
 19 35  1  0  0  0  0
 20 21  1  0  0  0  0
 20 36  1  0  0  0  0
 21 22  2  0  0  0  0
 22 37  1  0  0  0  0
M  END
> <compound_name>
MAT-POS-1e5f28a7-1

> <provenance>
{"isomeric_smiles": "Cc1ccncc1NC(=O)[C@@H](c2cccc(c2)Cl)C(=O)OC", "inchi": "InChI=1S/C16H15ClN2O3/c1-10-6-7-18-9-13(10)19-15(20)14(16(21)22-2)11-4-3-5-12(17)8-11/h3-9,14H,1-2H3,(H,19,20)/t14-/m1/s1", "inchi_key": "LOFUGDOYUSJHEA-CQSZACIVSA-N", "fixed_inchi": "InChI=1/C16H15ClN2O3/c1-10-6-7-18-9-13(10)19-15(20)14(16(21)22-2)11-4-3-5-12(17)8-11/h3-9,14H,1-2H3,(H,19,20)/t14-/m1/s1/f/h19H", "fixed_inchikey": "LOFUGDOYUSJHEA-ZGWWKFFJNA-N"}

> <data_format>
sdf

$$$$
