LIG(A-306)
  -OEChem-06042511413D

 54 57  0     1  0  0  0  0  0999 V2000
   10.6043    1.9210   24.1523 C   0  0  0  0  0  0  0  0  0  0  0  0
    9.3165    1.5133   24.3973 N   0  3  2  0  0  0  0  0  0  0  0  0
    8.4531    2.3308   25.2294 C   0  0  0  0  0  0  0  0  0  0  0  0
    7.7484    3.5006   24.5633 C   0  0  0  0  0  0  0  0  0  0  0  0
    7.0359    4.2547   25.2231 O   0  0  0  0  0  0  0  0  0  0  0  0
    7.8976    3.6309   23.2489 N   0  0  0  0  0  0  0  0  0  0  0  0
    7.0413    4.4915   22.4533 C   0  0  0  0  0  0  0  0  0  0  0  0
   11.4524    0.9891   23.3966 C   0  0  0  0  0  0  0  0  0  0  0  0
   12.7970    1.3024   23.2002 C   0  0  0  0  0  0  0  0  0  0  0  0
   13.6223    0.4363   22.5078 C   0  0  0  0  0  0  0  0  0  0  0  0
   13.0980   -0.7382   22.0149 C   0  0  0  0  0  0  0  0  0  0  0  0
   14.1557   -1.8704   21.2232 Cl  0  0  0  0  0  0  0  0  0  0  0  0
   11.7593   -1.0573   22.1613 C   0  0  0  0  0  0  0  0  0  0  0  0
   10.9121   -0.1771   22.8388 C   0  0  0  0  0  0  0  0  0  0  0  0
    9.4245   -0.4566   22.9304 C   0  0  1  0  0  0  0  0  0  0  0  0
    8.8777    0.1239   24.2333 C   0  0  0  0  0  0  0  0  0  0  0  0
    8.7349    0.2596   21.7660 C   0  0  0  0  0  0  0  0  0  0  0  0
    9.2149    1.2613   21.2360 O   0  0  0  0  0  0  0  0  0  0  0  0
    7.5498   -0.2811   21.3803 N   0  0  0  0  0  0  0  0  0  0  0  0
    6.7266    0.1369   20.3054 C   0  0  0  0  0  0  0  0  0  0  0  0
    5.5201    0.8912   20.5112 C   0  0  0  0  0  0  0  0  0  0  0  0
    4.9047    1.1570   21.7876 C   0  0  0  0  0  0  0  0  0  0  0  0
    5.3726    0.5865   23.1017 C   0  0  0  0  0  0  0  0  0  0  0  0
    3.7742    1.9471   21.8296 C   0  0  0  0  0  0  0  0  0  0  0  0
    3.1972    2.4829   20.6922 C   0  0  0  0  0  0  0  0  0  0  0  0
    3.7307    2.2310   19.4680 C   0  0  0  0  0  0  0  0  0  0  0  0
    4.8891    1.4273   19.3419 C   0  0  0  0  0  0  0  0  0  0  0  0
    5.4655    1.1315   18.0794 C   0  0  0  0  0  0  0  0  0  0  0  0
    6.5591    0.4093   17.9037 N   0  0  0  0  0  0  0  0  0  0  0  0
    7.1642   -0.0664   18.9973 C   0  0  0  0  0  0  0  0  0  0  0  0
   10.5551    2.8628   23.5861 H   0  0  0  0  0  0  0  0  0  0  0  0
   11.0884    2.1018   25.1233 H   0  0  0  0  0  0  0  0  0  0  0  0
    8.9420    1.8339   23.5273 H   0  0  0  0  0  0  0  0  0  0  0  0
    7.6775    1.6725   25.6479 H   0  0  0  0  0  0  0  0  0  0  0  0
    9.0687    2.7371   26.0455 H   0  0  0  0  0  0  0  0  0  0  0  0
    8.6249    3.1183   22.7924 H   0  0  0  0  0  0  0  0  0  0  0  0
    7.3485    4.4412   21.3983 H   0  0  0  0  0  0  0  0  0  0  0  0
    5.9973    4.1579   22.5472 H   0  0  0  0  0  0  0  0  0  0  0  0
    7.1287    5.5279   22.8115 H   0  0  0  0  0  0  0  0  0  0  0  0
   13.1957    2.2269   23.5911 H   0  0  0  0  0  0  0  0  0  0  0  0
   14.6640    0.6771   22.3554 H   0  0  0  0  0  0  0  0  0  0  0  0
   11.3725   -1.9802   21.7549 H   0  0  0  0  0  0  0  0  0  0  0  0
    9.2314   -1.5384   22.8821 H   0  0  0  0  0  0  0  0  0  0  0  0
    7.7785    0.0911   24.2116 H   0  0  0  0  0  0  0  0  0  0  0  0
    9.2458   -0.4747   25.0795 H   0  0  0  0  0  0  0  0  0  0  0  0
    7.2221   -1.0606   21.9142 H   0  0  0  0  0  0  0  0  0  0  0  0
    6.4092    0.9022   23.2908 H   0  0  0  0  0  0  0  0  0  0  0  0
    4.7245    0.9524   23.9117 H   0  0  0  0  0  0  0  0  0  0  0  0
    5.3253   -0.5118   23.0621 H   0  0  0  0  0  0  0  0  0  0  0  0
    3.3221    2.1552   22.7880 H   0  0  0  0  0  0  0  0  0  0  0  0
    2.3183    3.1046   20.7777 H   0  0  0  0  0  0  0  0  0  0  0  0
    3.2677    2.6467   18.5852 H   0  0  0  0  0  0  0  0  0  0  0  0
    4.9766    1.5240   17.2001 H   0  0  0  0  0  0  0  0  0  0  0  0
    8.0601   -0.6528   18.8565 H   0  0  0  0  0  0  0  0  0  0  0  0
  1  2  1  0  0  0  0
  1  8  1  0  0  0  0
  1 31  1  0  0  0  0
  1 32  1  0  0  0  0
  2  3  1  0  0  0  0
  2 16  1  0  0  0  0
  2 33  1  0  0  0  0
  3  4  1  0  0  0  0
  3 34  1  0  0  0  0
  3 35  1  0  0  0  0
  4  5  2  0  0  0  0
  4  6  1  0  0  0  0
  6  7  1  0  0  0  0
  6 36  1  0  0  0  0
  7 37  1  0  0  0  0
  7 38  1  0  0  0  0
  7 39  1  0  0  0  0
  8  9  2  0  0  0  0
  8 14  1  0  0  0  0
  9 10  1  0  0  0  0
  9 40  1  0  0  0  0
 10 11  2  0  0  0  0
 10 41  1  0  0  0  0
 11 12  1  0  0  0  0
 11 13  1  0  0  0  0
 13 14  2  0  0  0  0
 13 42  1  0  0  0  0
 14 15  1  0  0  0  0
 15 16  1  0  0  0  0
 15 17  1  0  0  0  0
 15 43  1  0  0  0  0
 16 44  1  0  0  0  0
 16 45  1  0  0  0  0
 17 18  2  0  0  0  0
 17 19  1  0  0  0  0
 19 20  1  0  0  0  0
 19 46  1  0  0  0  0
 20 21  2  0  0  0  0
 20 30  1  0  0  0  0
 21 22  1  0  0  0  0
 21 27  1  0  0  0  0
 22 23  1  0  0  0  0
 22 24  2  0  0  0  0
 23 47  1  0  0  0  0
 23 48  1  0  0  0  0
 23 49  1  0  0  0  0
 24 25  1  0  0  0  0
 24 50  1  0  0  0  0
 25 26  2  0  0  0  0
 25 51  1  0  0  0  0
 26 27  1  0  0  0  0
 26 52  1  0  0  0  0
 27 28  2  0  0  0  0
 28 29  1  0  0  0  0
 28 53  1  0  0  0  0
 29 30  2  0  0  0  0
 30 54  1  0  0  0  0
M  CHG  1   2   1
M  END
> <compound_name>
MAT-POS-e119ab4f-3

> <provenance>
{"isomeric_smiles": "Cc1cccc2c1c(cnc2)NC(=O)[C@@H]3C[N@H+](Cc4c3cc(cc4)Cl)CC(=O)NC", "inchi": "InChI=1S/C23H23ClN4O2/c1-14-4-3-5-15-9-26-10-20(22(14)15)27-23(30)19-12-28(13-21(29)25-2)11-16-6-7-17(24)8-18(16)19/h3-10,19H,11-13H2,1-2H3,(H,25,29)(H,27,30)/p+1/t19-/m1/s1", "inchi_key": "FBKSJGDUQBAJIT-LJQANCHMSA-O", "fixed_inchi": "InChI=1/C23H23ClN4O2/c1-14-4-3-5-15-9-26-10-20(22(14)15)27-23(30)19-12-28(13-21(29)25-2)11-16-6-7-17(24)8-18(16)19/h3-10,19H,11-13H2,1-2H3,(H,25,29)(H,27,30)/p+1/t19-/m1/s1/fC23H24ClN4O2/h25,27-28H/q+1", "fixed_inchikey": "FBKSJGDUQBAJIT-NJIZIOJDNA-O"}

> <data_format>
sdf

$$$$
