LIG(A-305)
  -OEChem-06042511373D

 43 46  0     1  0  0  0  0  0999 V2000
   13.9615   -1.6316   21.2983 Cl  0  0  0  0  0  0  0  0  0  0  0  0
   12.6396   -1.0266   22.2543 C   0  0  0  0  0  0  0  0  0  0  0  0
   11.3715   -1.4966   22.0044 C   0  0  0  0  0  0  0  0  0  0  0  0
   12.8866   -0.1016   23.2403 C   0  0  0  0  0  0  0  0  0  0  0  0
   11.8367    0.3505   24.0233 C   0  0  0  0  0  0  0  0  0  0  0  0
   10.5406   -0.1036   23.7854 C   0  0  0  0  0  0  0  0  0  0  0  0
    9.4597    0.3285   24.5565 N   0  0  3  0  0  0  0  0  0  0  0  0
    9.6727    1.2595   25.6624 C   0  0  0  0  0  0  0  0  0  0  0  0
   10.3016   -1.0296   22.7595 C   0  0  0  0  0  0  0  0  0  0  0  0
    8.9036   -1.5056   22.4306 C   0  0  1  0  0  0  0  0  0  0  0  0
    7.9846   -1.4386   23.6716 C   0  0  0  0  0  0  0  0  0  0  0  0
    8.0707   -0.0706   24.3446 C   0  0  0  0  0  0  0  0  0  0  0  0
    8.4665   -0.5677   21.3076 C   0  0  0  0  0  0  0  0  0  0  0  0
    9.0635    0.4793   21.0575 O   0  0  0  0  0  0  0  0  0  0  0  0
    7.3765   -0.9797   20.6297 N   0  0  0  0  0  0  0  0  0  0  0  0
    6.6574   -0.2597   19.6647 C   0  0  0  0  0  0  0  0  0  0  0  0
    5.5464    0.5243   20.1017 C   0  0  0  0  0  0  0  0  0  0  0  0
    5.0695    0.5433   21.4387 C   0  0  0  0  0  0  0  0  0  0  0  0
    3.9855    1.2973   21.7858 C   0  0  0  0  0  0  0  0  0  0  0  0
    3.3295    2.0693   20.8398 C   0  0  0  0  0  0  0  0  0  0  0  0
    3.7594    2.0983   19.5458 C   0  0  0  0  0  0  0  0  0  0  0  0
    4.8754    1.3243   19.1397 C   0  0  0  0  0  0  0  0  0  0  0  0
    5.3583    1.2932   17.8097 C   0  0  0  0  0  0  0  0  0  0  0  0
    6.3893    0.5572   17.4047 N   0  0  0  0  0  0  0  0  0  0  0  0
    7.0103   -0.1948   18.3176 C   0  0  0  0  0  0  0  0  0  0  0  0
   11.2075   -2.2256   21.2247 H   0  0  0  0  0  0  0  0  0  0  0  0
   13.8879    0.2688   23.4029 H   0  0  0  0  0  0  0  0  0  0  0  0
   12.0229    1.0560   24.8196 H   0  0  0  0  0  0  0  0  0  0  0  0
    8.7102    1.4808   26.1468 H   0  0  0  0  0  0  0  0  0  0  0  0
   10.3566    0.8072   26.3957 H   0  0  0  0  0  0  0  0  0  0  0  0
   10.1122    2.1915   25.2775 H   0  0  0  0  0  0  0  0  0  0  0  0
    8.9389   -2.5396   22.0569 H   0  0  0  0  0  0  0  0  0  0  0  0
    6.9456   -1.6212   23.3599 H   0  0  0  0  0  0  0  0  0  0  0  0
    8.2934   -2.2126   24.3897 H   0  0  0  0  0  0  0  0  0  0  0  0
    7.5768    0.6755   23.7047 H   0  0  0  0  0  0  0  0  0  0  0  0
    7.5583   -0.1163   25.3169 H   0  0  0  0  0  0  0  0  0  0  0  0
    7.0442   -1.8997   20.8377 H   0  0  0  0  0  0  0  0  0  0  0  0
    5.5710   -0.0466   22.1916 H   0  0  0  0  0  0  0  0  0  0  0  0
    3.6358    1.2923   22.8076 H   0  0  0  0  0  0  0  0  0  0  0  0
    2.4691    2.6538   21.1303 H   0  0  0  0  0  0  0  0  0  0  0  0
    3.2452    2.7160   18.8244 H   0  0  0  0  0  0  0  0  0  0  0  0
    4.8569    1.9071   17.0760 H   0  0  0  0  0  0  0  0  0  0  0  0
    7.8455   -0.7953   17.9886 H   0  0  0  0  0  0  0  0  0  0  0  0
  1  2  1  0  0  0  0
  2  3  2  0  0  0  0
  2  4  1  0  0  0  0
  3  9  1  0  0  0  0
  3 26  1  0  0  0  0
  4  5  2  0  0  0  0
  4 27  1  0  0  0  0
  5  6  1  0  0  0  0
  5 28  1  0  0  0  0
  6  7  1  0  0  0  0
  6  9  2  0  0  0  0
  7  8  1  0  0  0  0
  7 12  1  0  0  0  0
  8 29  1  0  0  0  0
  8 30  1  0  0  0  0
  8 31  1  0  0  0  0
  9 10  1  0  0  0  0
 10 11  1  0  0  0  0
 10 13  1  0  0  0  0
 10 32  1  0  0  0  0
 11 12  1  0  0  0  0
 11 33  1  0  0  0  0
 11 34  1  0  0  0  0
 12 35  1  0  0  0  0
 12 36  1  0  0  0  0
 13 14  2  0  0  0  0
 13 15  1  0  0  0  0
 15 16  1  0  0  0  0
 15 37  1  0  0  0  0
 16 17  2  0  0  0  0
 16 25  1  0  0  0  0
 17 18  1  0  0  0  0
 17 22  1  0  0  0  0
 18 19  2  0  0  0  0
 18 38  1  0  0  0  0
 19 20  1  0  0  0  0
 19 39  1  0  0  0  0
 20 21  2  0  0  0  0
 20 40  1  0  0  0  0
 21 22  1  0  0  0  0
 21 41  1  0  0  0  0
 22 23  2  0  0  0  0
 23 24  1  0  0  0  0
 23 42  1  0  0  0  0
 24 25  2  0  0  0  0
 25 43  1  0  0  0  0
M  END
> <compound_name>
MIC-UNK-91acba05-6

> <provenance>
{"isomeric_smiles": "CN1CC[C@H](c2c1ccc(c2)Cl)C(=O)Nc3cncc4c3cccc4", "inchi": "InChI=1S/C20H18ClN3O/c1-24-9-8-16(17-10-14(21)6-7-19(17)24)20(25)23-18-12-22-11-13-4-2-3-5-15(13)18/h2-7,10-12,16H,8-9H2,1H3,(H,23,25)/t16-/m1/s1", "inchi_key": "NIZLDWOVHDTVKM-MRXNPFEDSA-N", "fixed_inchi": "InChI=1/C20H18ClN3O/c1-24-9-8-16(17-10-14(21)6-7-19(17)24)20(25)23-18-12-22-11-13-4-2-3-5-15(13)18/h2-7,10-12,16H,8-9H2,1H3,(H,23,25)/t16-/m1/s1/f/h23H", "fixed_inchikey": "NIZLDWOVHDTVKM-ZJHKTUGWNA-N"}

> <data_format>
sdf

$$$$
