LIG(A-305)
  -OEChem-06042511323D

 38 40  0     0  0  0  0  0  0999 V2000
   11.4792    3.3999   24.4104 O   0  0  0  0  0  0  0  0  0  0  0  0
   11.4793    3.8111   23.2615 C   0  0  0  0  0  0  0  0  0  0  0  0
   10.9053    3.1614   22.2273 N   0  0  0  0  0  0  0  0  0  0  0  0
   10.3823    1.8634   22.1770 C   0  0  0  0  0  0  0  0  0  0  0  0
    9.6913    1.6116   21.0530 N   0  0  0  0  0  0  0  0  0  0  0  0
    9.2463    0.3607   20.8677 C   0  0  0  0  0  0  0  0  0  0  0  0
    9.4502   -0.6735   21.7635 C   0  0  0  0  0  0  0  0  0  0  0  0
   10.6192    0.8962   23.1619 C   0  0  0  0  0  0  0  0  0  0  0  0
   10.1372   -0.3838   22.9336 C   0  0  0  0  0  0  0  0  0  0  0  0
   10.3771   -1.2390   23.9784 O   0  0  0  0  0  0  0  0  0  0  0  0
    9.9190   -2.5889   23.8721 C   0  0  0  0  0  0  0  0  0  0  0  0
   12.1453    5.1202   22.8927 C   0  0  0  0  0  0  0  0  0  0  0  0
   11.3674    6.3181   23.3880 C   0  0  0  0  0  0  0  0  0  0  0  0
   11.7383    6.9739   24.5361 C   0  0  0  0  0  0  0  0  0  0  0  0
   11.0484    8.1258   24.9823 C   0  0  0  0  0  0  0  0  0  0  0  0
    9.9524    8.6010   24.2204 C   0  0  0  0  0  0  0  0  0  0  0  0
    9.5844    7.8912   23.0552 C   0  0  0  0  0  0  0  0  0  0  0  0
   10.2774    6.7853   22.6630 C   0  0  0  0  0  0  0  0  0  0  0  0
   11.4173    8.8256   26.1595 C   0  0  0  0  0  0  0  0  0  0  0  0
   10.7394    9.9485   26.5397 C   0  0  0  0  0  0  0  0  0  0  0  0
    9.6714   10.4177   25.7897 C   0  0  0  0  0  0  0  0  0  0  0  0
    9.2764    9.7669   24.6546 C   0  0  0  0  0  0  0  0  0  0  0  0
   10.8449    3.6810   21.3751 H   0  0  0  0  0  0  0  0  0  0  0  0
    8.6949    0.1473   19.9639 H   0  0  0  0  0  0  0  0  0  0  0  0
    9.0879   -1.6703   21.5595 H   0  0  0  0  0  0  0  0  0  0  0  0
   11.1578    1.1384   24.0661 H   0  0  0  0  0  0  0  0  0  0  0  0
   10.1876   -3.1407   24.7850 H   0  0  0  0  0  0  0  0  0  0  0  0
    8.8262   -2.5965   23.7475 H   0  0  0  0  0  0  0  0  0  0  0  0
   10.3907   -3.0686   23.0018 H   0  0  0  0  0  0  0  0  0  0  0  0
   13.1512    5.1431   23.3373 H   0  0  0  0  0  0  0  0  0  0  0  0
   12.2272    5.1795   21.7974 H   0  0  0  0  0  0  0  0  0  0  0  0
   12.5742    6.6026   25.1105 H   0  0  0  0  0  0  0  0  0  0  0  0
    8.7435    8.2295   22.4681 H   0  0  0  0  0  0  0  0  0  0  0  0
    9.9730    6.2605   21.7695 H   0  0  0  0  0  0  0  0  0  0  0  0
   12.2407    8.4677   26.7597 H   0  0  0  0  0  0  0  0  0  0  0  0
   11.0380   10.4764   27.4333 H   0  0  0  0  0  0  0  0  0  0  0  0
    9.1462   11.3068   26.1060 H   0  0  0  0  0  0  0  0  0  0  0  0
    8.4414   10.1454   24.0837 H   0  0  0  0  0  0  0  0  0  0  0  0
  1  2  2  0  0  0  0
  2  3  1  0  0  0  0
  2 12  1  0  0  0  0
  3  4  1  0  0  0  0
  3 23  1  0  0  0  0
  4  5  2  0  0  0  0
  4  8  1  0  0  0  0
  5  6  1  0  0  0  0
  6  7  2  0  0  0  0
  6 24  1  0  0  0  0
  7  9  1  0  0  0  0
  7 25  1  0  0  0  0
  8  9  2  0  0  0  0
  8 26  1  0  0  0  0
  9 10  1  0  0  0  0
 10 11  1  0  0  0  0
 11 27  1  0  0  0  0
 11 28  1  0  0  0  0
 11 29  1  0  0  0  0
 12 13  1  0  0  0  0
 12 30  1  0  0  0  0
 12 31  1  0  0  0  0
 13 14  2  0  0  0  0
 13 18  1  0  0  0  0
 14 15  1  0  0  0  0
 14 32  1  0  0  0  0
 15 16  2  0  0  0  0
 15 19  1  0  0  0  0
 16 17  1  0  0  0  0
 16 22  1  0  0  0  0
 17 18  2  0  0  0  0
 17 33  1  0  0  0  0
 18 34  1  0  0  0  0
 19 20  2  0  0  0  0
 19 35  1  0  0  0  0
 20 21  1  0  0  0  0
 20 36  1  0  0  0  0
 21 22  2  0  0  0  0
 21 37  1  0  0  0  0
 22 38  1  0  0  0  0
M  END
> <compound_name>
ALV-UNI-7ff1a6f9-47

> <provenance>
{"isomeric_smiles": "COc1ccnc(c1)NC(=O)Cc2ccc3ccccc3c2", "inchi": "InChI=1S/C18H16N2O2/c1-22-16-8-9-19-17(12-16)20-18(21)11-13-6-7-14-4-2-3-5-15(14)10-13/h2-10,12H,11H2,1H3,(H,19,20,21)", "inchi_key": "LGUXBXKDCLNCEH-UHFFFAOYSA-N", "fixed_inchi": "InChI=1/C18H16N2O2/c1-22-16-8-9-19-17(12-16)20-18(21)11-13-6-7-14-4-2-3-5-15(14)10-13/h2-10,12H,11H2,1H3,(H,19,20,21)/f/h20H", "fixed_inchikey": "LGUXBXKDCLNCEH-UYBDAZJANA-N"}

> <data_format>
sdf

$$$$
