LIG(A-305)
  -OEChem-06042511373D

 43 46  0     0  0  0  0  0  0999 V2000
    6.2847    1.0335   16.8361 O   0  0  0  0  0  0  0  0  0  0  0  0
    5.6448    0.8315   17.8772 C   0  0  0  0  0  0  0  0  0  0  0  0
    5.9637   -0.1946   18.8161 C   0  0  0  0  0  0  0  0  0  0  0  0
    4.5979    1.6497   18.2143 N   0  0  0  0  0  0  0  0  0  0  0  0
    3.8800    1.5607   19.4054 C   0  0  0  0  0  0  0  0  0  0  0  0
    4.2380    0.5856   20.3573 C   0  0  0  0  0  0  0  0  0  0  0  0
    3.5631    0.5457   21.5773 C   0  0  0  0  0  0  0  0  0  0  0  0
    2.5092    1.4128   21.8175 C   0  0  0  0  0  0  0  0  0  0  0  0
    2.1353    2.3389   20.8656 C   0  0  0  0  0  0  0  0  0  0  0  0
    2.8212    2.4299   19.6645 C   0  0  0  0  0  0  0  0  0  0  0  0
    5.3138   -0.3365   20.0091 C   0  0  0  0  0  0  0  0  0  0  0  0
    5.7217   -1.4396   20.9300 C   0  0  0  0  0  0  0  0  0  0  0  0
    5.1686   -2.5315   20.8441 O   0  0  0  0  0  0  0  0  0  0  0  0
    6.6599   -1.1798   21.8560 N   0  0  0  0  0  0  0  0  0  0  0  0
    7.2458   -2.1539   22.7839 C   0  0  0  0  0  0  0  0  0  0  0  0
    8.7528   -2.2562   22.5607 C   0  0  0  0  0  0  0  0  0  0  0  0
    7.2461    0.1501   21.9920 C   0  0  0  0  0  0  0  0  0  0  0  0
    8.7461    0.1529   21.8958 C   0  0  0  0  0  0  0  0  0  0  0  0
    9.3202    1.0838   21.3508 O   0  0  0  0  0  0  0  0  0  0  0  0
    9.3920   -0.9332   22.4087 N   0  0  0  0  0  0  0  0  0  0  0  0
   10.7710   -0.8655   22.7546 C   0  0  0  0  0  0  0  0  0  0  0  0
   11.7018   -1.5186   21.9505 C   0  0  0  0  0  0  0  0  0  0  0  0
   13.0439   -1.3618   22.2223 C   0  0  0  0  0  0  0  0  0  0  0  0
   14.2027   -2.0969   21.1572 Cl  0  0  0  0  0  0  0  0  0  0  0  0
   11.1962   -0.0976   23.8356 C   0  0  0  0  0  0  0  0  0  0  0  0
   12.5523    0.0292   24.0964 C   0  0  0  0  0  0  0  0  0  0  0  0
   13.4881   -0.6009   23.2873 C   0  0  0  0  0  0  0  0  0  0  0  0
    6.7538   -0.8896   18.5727 H   0  0  0  0  0  0  0  0  0  0  0  0
    4.3328    2.3596   17.5674 H   0  0  0  0  0  0  0  0  0  0  0  0
    3.8624   -0.1622   22.3361 H   0  0  0  0  0  0  0  0  0  0  0  0
    1.9771    1.3635   22.7559 H   0  0  0  0  0  0  0  0  0  0  0  0
    1.3017    2.9981   21.0578 H   0  0  0  0  0  0  0  0  0  0  0  0
    2.5365    3.1710   18.9324 H   0  0  0  0  0  0  0  0  0  0  0  0
    7.0529   -1.8321   23.8179 H   0  0  0  0  0  0  0  0  0  0  0  0
    6.7860   -3.1388   22.6146 H   0  0  0  0  0  0  0  0  0  0  0  0
    9.2034   -2.7689   23.4233 H   0  0  0  0  0  0  0  0  0  0  0  0
    8.9355   -2.8433   21.6487 H   0  0  0  0  0  0  0  0  0  0  0  0
    6.8442    0.7918   21.1940 H   0  0  0  0  0  0  0  0  0  0  0  0
    6.9585    0.5596   22.9716 H   0  0  0  0  0  0  0  0  0  0  0  0
   11.3773   -2.1378   21.1273 H   0  0  0  0  0  0  0  0  0  0  0  0
   10.4735    0.3968   24.4677 H   0  0  0  0  0  0  0  0  0  0  0  0
   12.8830    0.6229   24.9358 H   0  0  0  0  0  0  0  0  0  0  0  0
   14.5446   -0.4984   23.4865 H   0  0  0  0  0  0  0  0  0  0  0  0
  1  2  2  0  0  0  0
  2  3  1  0  0  0  0
  2  4  1  0  0  0  0
  3 11  2  0  0  0  0
  3 28  1  0  0  0  0
  4  5  1  0  0  0  0
  4 29  1  0  0  0  0
  5  6  2  0  0  0  0
  5 10  1  0  0  0  0
  6  7  1  0  0  0  0
  6 11  1  0  0  0  0
  7  8  2  0  0  0  0
  7 30  1  0  0  0  0
  8  9  1  0  0  0  0
  8 31  1  0  0  0  0
  9 10  2  0  0  0  0
  9 32  1  0  0  0  0
 10 33  1  0  0  0  0
 11 12  1  0  0  0  0
 12 13  2  0  0  0  0
 12 14  1  0  0  0  0
 14 15  1  0  0  0  0
 14 17  1  0  0  0  0
 15 16  1  0  0  0  0
 15 34  1  0  0  0  0
 15 35  1  0  0  0  0
 16 20  1  0  0  0  0
 16 36  1  0  0  0  0
 16 37  1  0  0  0  0
 17 18  1  0  0  0  0
 17 38  1  0  0  0  0
 17 39  1  0  0  0  0
 18 19  2  0  0  0  0
 18 20  1  0  0  0  0
 20 21  1  0  0  0  0
 21 22  2  0  0  0  0
 21 25  1  0  0  0  0
 22 23  1  0  0  0  0
 22 40  1  0  0  0  0
 23 24  1  0  0  0  0
 23 27  2  0  0  0  0
 25 26  2  0  0  0  0
 25 41  1  0  0  0  0
 26 27  1  0  0  0  0
 26 42  1  0  0  0  0
 27 43  1  0  0  0  0
M  END
> <compound_name>
ERI-UCB-d6de1f3c-1

> <provenance>
{"isomeric_smiles": "c1ccc2c(c1)c(cc(=O)[nH]2)C(=O)N3CCN(C(=O)C3)c4cccc(c4)Cl", "inchi": "InChI=1S/C20H16ClN3O3/c21-13-4-3-5-14(10-13)24-9-8-23(12-19(24)26)20(27)16-11-18(25)22-17-7-2-1-6-15(16)17/h1-7,10-11H,8-9,12H2,(H,22,25)", "inchi_key": "BJJZCSKOWCBJFK-UHFFFAOYSA-N", "fixed_inchi": "InChI=1/C20H16ClN3O3/c21-13-4-3-5-14(10-13)24-9-8-23(12-19(24)26)20(27)16-11-18(25)22-17-7-2-1-6-15(16)17/h1-7,10-11H,8-9,12H2,(H,22,25)/f/h22H", "fixed_inchikey": "BJJZCSKOWCBJFK-QWOVJGMINA-N"}

> <data_format>
sdf

$$$$
