LIG(A-306)
  -OEChem-06042511423D

 54 58  0     1  0  0  0  0  0999 V2000
    9.0177    1.1482   21.2354 O   0  0  0  0  0  0  0  0  0  0  0  0
    8.5434    0.0744   21.6102 C   0  0  0  0  0  0  0  0  0  0  0  0
    7.4600   -0.4974   21.0316 N   0  0  0  0  0  0  0  0  0  0  0  0
    6.6998    0.0007   19.9473 C   0  0  0  0  0  0  0  0  0  0  0  0
    5.5727    0.8408   20.2218 C   0  0  0  0  0  0  0  0  0  0  0  0
    5.0746    1.0944   21.5272 C   0  0  0  0  0  0  0  0  0  0  0  0
    4.0005    1.9158   21.7215 C   0  0  0  0  0  0  0  0  0  0  0  0
    3.3795    2.5385   20.6458 C   0  0  0  0  0  0  0  0  0  0  0  0
    3.8157    2.3219   19.3706 C   0  0  0  0  0  0  0  0  0  0  0  0
    4.9108    1.4587   19.1210 C   0  0  0  0  0  0  0  0  0  0  0  0
    5.3888    1.1691   17.8184 C   0  0  0  0  0  0  0  0  0  0  0  0
    6.4150    0.3712   17.5612 N   0  0  0  0  0  0  0  0  0  0  0  0
    7.0410   -0.1894   18.6062 C   0  0  0  0  0  0  0  0  0  0  0  0
    9.1271   -0.7008   22.7962 C   0  0  1  0  0  0  0  0  0  0  0  0
   10.5998   -0.3757   22.9345 C   0  0  0  0  0  0  0  0  0  0  0  0
   11.0145    0.7508   23.6550 C   0  0  0  0  0  0  0  0  0  0  0  0
   12.3633    1.1138   23.6704 C   0  0  0  0  0  0  0  0  0  0  0  0
   13.2954    0.3713   22.9685 C   0  0  0  0  0  0  0  0  0  0  0  0
   11.5560   -1.1405   22.2624 C   0  0  0  0  0  0  0  0  0  0  0  0
   12.8808   -0.7434   22.2740 C   0  0  0  0  0  0  0  0  0  0  0  0
   14.0446   -1.6383   21.3343 Cl  0  0  0  0  0  0  0  0  0  0  0  0
    8.3893   -0.2855   24.0695 C   0  0  0  0  0  0  0  0  0  0  0  0
    8.7564    1.0767   24.4662 N   0  0  0  0  0  0  0  0  0  0  0  0
   10.0424    1.5622   24.4113 C   0  0  0  0  0  0  0  0  0  0  0  0
   10.3469    2.6402   24.8885 O   0  0  0  0  0  0  0  0  0  0  0  0
    7.6504    1.9666   24.7819 C   0  0  0  0  0  0  0  0  0  0  0  0
    7.7263    3.3822   24.2309 C   0  0  0  0  0  0  0  0  0  0  0  0
    7.8606    4.3452   24.9837 O   0  0  0  0  0  0  0  0  0  0  0  0
    7.6972    3.5029   22.8995 N   0  0  0  0  0  0  0  0  0  0  0  0
    6.8231    4.4403   22.1914 C   0  0  0  0  0  0  0  0  0  0  0  0
    5.5495    4.9715   22.9203 C   0  0  0  0  0  0  0  0  0  0  0  0
    5.8874    6.3483   22.6121 O   0  0  0  0  0  0  0  0  0  0  0  0
    7.2184    5.9535   22.1938 C   0  0  0  0  0  0  0  0  0  0  0  0
    7.1635   -1.3721   21.4151 H   0  0  0  0  0  0  0  0  0  0  0  0
    5.5517    0.6314   22.3784 H   0  0  0  0  0  0  0  0  0  0  0  0
    3.6299    2.0829   22.7221 H   0  0  0  0  0  0  0  0  0  0  0  0
    2.5439    3.2001   20.8202 H   0  0  0  0  0  0  0  0  0  0  0  0
    3.3218    2.8127   18.5450 H   0  0  0  0  0  0  0  0  0  0  0  0
    4.8841    1.6286   16.9814 H   0  0  0  0  0  0  0  0  0  0  0  0
    7.8764   -0.8403   18.3939 H   0  0  0  0  0  0  0  0  0  0  0  0
    8.9978   -1.7805   22.6301 H   0  0  0  0  0  0  0  0  0  0  0  0
   12.6800    1.9791   24.2336 H   0  0  0  0  0  0  0  0  0  0  0  0
   14.3356    0.6620   22.9651 H   0  0  0  0  0  0  0  0  0  0  0  0
   11.2625   -2.0369   21.7365 H   0  0  0  0  0  0  0  0  0  0  0  0
    7.3053   -0.3278   23.8877 H   0  0  0  0  0  0  0  0  0  0  0  0
    8.6524   -0.9801   24.8809 H   0  0  0  0  0  0  0  0  0  0  0  0
    6.7315    1.5064   24.3897 H   0  0  0  0  0  0  0  0  0  0  0  0
    7.5853    2.0397   25.8775 H   0  0  0  0  0  0  0  0  0  0  0  0
    8.3050    2.9217   22.3583 H   0  0  0  0  0  0  0  0  0  0  0  0
    6.5805    4.0999   21.1739 H   0  0  0  0  0  0  0  0  0  0  0  0
    4.6069    4.6354   22.4636 H   0  0  0  0  0  0  0  0  0  0  0  0
    5.5336    4.7514   23.9980 H   0  0  0  0  0  0  0  0  0  0  0  0
    8.0032    6.2039   22.9227 H   0  0  0  0  0  0  0  0  0  0  0  0
    7.5023    6.3376   21.2029 H   0  0  0  0  0  0  0  0  0  0  0  0
  1  2  2  0  0  0  0
  2  3  1  0  0  0  0
  2 14  1  0  0  0  0
  3  4  1  0  0  0  0
  3 34  1  0  0  0  0
  4  5  2  0  0  0  0
  4 13  1  0  0  0  0
  5  6  1  0  0  0  0
  5 10  1  0  0  0  0
  6  7  2  0  0  0  0
  6 35  1  0  0  0  0
  7  8  1  0  0  0  0
  7 36  1  0  0  0  0
  8  9  2  0  0  0  0
  8 37  1  0  0  0  0
  9 10  1  0  0  0  0
  9 38  1  0  0  0  0
 10 11  2  0  0  0  0
 11 12  1  0  0  0  0
 11 39  1  0  0  0  0
 12 13  2  0  0  0  0
 13 40  1  0  0  0  0
 14 15  1  0  0  0  0
 14 22  1  0  0  0  0
 14 41  1  0  0  0  0
 15 16  2  0  0  0  0
 15 19  1  0  0  0  0
 16 17  1  0  0  0  0
 16 24  1  0  0  0  0
 17 18  2  0  0  0  0
 17 42  1  0  0  0  0
 18 20  1  0  0  0  0
 18 43  1  0  0  0  0
 19 20  2  0  0  0  0
 19 44  1  0  0  0  0
 20 21  1  0  0  0  0
 22 23  1  0  0  0  0
 22 45  1  0  0  0  0
 22 46  1  0  0  0  0
 23 24  1  0  0  0  0
 23 26  1  0  0  0  0
 24 25  2  0  0  0  0
 26 27  1  0  0  0  0
 26 47  1  0  0  0  0
 26 48  1  0  0  0  0
 27 28  2  0  0  0  0
 27 29  1  0  0  0  0
 29 30  1  0  0  0  0
 29 49  1  0  0  0  0
 30 31  1  0  0  0  0
 30 33  1  0  0  0  0
 30 50  1  0  0  0  0
 31 32  1  0  0  0  0
 31 51  1  0  0  0  0
 31 52  1  0  0  0  0
 32 33  1  0  0  0  0
 33 53  1  0  0  0  0
 33 54  1  0  0  0  0
M  END
> <compound_name>
EDJ-MED-43f8f7d6-6

> <provenance>
{"isomeric_smiles": "c1ccc2c(c1)cncc2NC(=O)[C@@H]3CN(C(=O)c4c3cc(cc4)Cl)CC(=O)NC5COC5", "inchi": "InChI=1S/C24H21ClN4O4/c25-15-5-6-18-19(7-15)20(10-29(24(18)32)11-22(30)27-16-12-33-13-16)23(31)28-21-9-26-8-14-3-1-2-4-17(14)21/h1-9,16,20H,10-13H2,(H,27,30)(H,28,31)/t20-/m1/s1", "inchi_key": "BLCZQPHMPCEAIL-HXUWFJFHSA-N", "fixed_inchi": "InChI=1/C24H21ClN4O4/c25-15-5-6-18-19(7-15)20(10-29(24(18)32)11-22(30)27-16-12-33-13-16)23(31)28-21-9-26-8-14-3-1-2-4-17(14)21/h1-9,16,20H,10-13H2,(H,27,30)(H,28,31)/t20-/m1/s1/f/h27-28H", "fixed_inchikey": "BLCZQPHMPCEAIL-VKDJAMJGNA-N"}

> <data_format>
sdf

$$$$
