LIG(A-305)
  -OEChem-06042511363D

 29 30  0     0  0  0  0  0  0999 V2000
   13.6632   -1.6979   21.4530 Cl  0  0  0  0  0  0  0  0  0  0  0  0
   12.4353   -0.8809   22.3771 C   0  0  0  0  0  0  0  0  0  0  0  0
   12.8103    0.0641   23.3031 C   0  0  0  0  0  0  0  0  0  0  0  0
   11.8323    0.6420   24.0971 C   0  0  0  0  0  0  0  0  0  0  0  0
   10.5003    0.3011   23.9231 C   0  0  0  0  0  0  0  0  0  0  0  0
   11.1123   -1.2299   22.1891 C   0  0  0  0  0  0  0  0  0  0  0  0
   10.1233   -0.6099   22.9481 C   0  0  0  0  0  0  0  0  0  0  0  0
    8.6673   -0.8178   22.6101 C   0  0  0  0  0  0  0  0  0  0  0  0
    8.3063   -0.0508   21.3532 C   0  0  0  0  0  0  0  0  0  0  0  0
    9.0363    0.8212   20.8842 O   0  0  0  0  0  0  0  0  0  0  0  0
    7.1203   -0.4137   20.7822 N   0  0  0  0  0  0  0  0  0  0  0  0
    6.6732    0.1094   19.5522 C   0  0  0  0  0  0  0  0  0  0  0  0
    5.6693    1.0214   19.3282 C   0  0  0  0  0  0  0  0  0  0  0  0
    4.8243    1.8184   20.2693 C   0  0  0  0  0  0  0  0  0  0  0  0
    7.1532   -0.2526   18.2932 C   0  0  0  0  0  0  0  0  0  0  0  0
    6.4842    0.3815   17.3382 N   0  0  0  0  0  0  0  0  0  0  0  0
    5.5712    1.1564   17.9943 N   0  0  0  0  0  0  0  0  0  0  0  0
   13.8463    0.3501   23.4095 H   0  0  0  0  0  0  0  0  0  0  0  0
   12.1093    1.3607   24.8543 H   0  0  0  0  0  0  0  0  0  0  0  0
    9.7474    0.7500   24.5541 H   0  0  0  0  0  0  0  0  0  0  0  0
   10.8465   -1.9789   21.4578 H   0  0  0  0  0  0  0  0  0  0  0  0
    8.4816   -1.8898   22.4475 H   0  0  0  0  0  0  0  0  0  0  0  0
    8.0460   -0.4606   23.4446 H   0  0  0  0  0  0  0  0  0  0  0  0
    6.5442   -1.0791   21.2569 H   0  0  0  0  0  0  0  0  0  0  0  0
    5.4687    2.4622   20.8859 H   0  0  0  0  0  0  0  0  0  0  0  0
    4.1246    2.4430   19.6944 H   0  0  0  0  0  0  0  0  0  0  0  0
    4.2574    1.1364   20.9201 H   0  0  0  0  0  0  0  0  0  0  0  0
    7.9577   -0.9519   18.1196 H   0  0  0  0  0  0  0  0  0  0  0  0
    4.9124    1.7533   17.5470 H   0  0  0  0  0  0  0  0  0  0  0  0
  1  2  1  0  0  0  0
  2  3  2  0  0  0  0
  2  6  1  0  0  0  0
  3  4  1  0  0  0  0
  3 18  1  0  0  0  0
  4  5  2  0  0  0  0
  4 19  1  0  0  0  0
  5  7  1  0  0  0  0
  5 20  1  0  0  0  0
  6  7  2  0  0  0  0
  6 21  1  0  0  0  0
  7  8  1  0  0  0  0
  8  9  1  0  0  0  0
  8 22  1  0  0  0  0
  8 23  1  0  0  0  0
  9 10  2  0  0  0  0
  9 11  1  0  0  0  0
 11 12  1  0  0  0  0
 11 24  1  0  0  0  0
 12 13  2  0  0  0  0
 12 15  1  0  0  0  0
 13 14  1  0  0  0  0
 13 17  1  0  0  0  0
 14 25  1  0  0  0  0
 14 26  1  0  0  0  0
 14 27  1  0  0  0  0
 15 16  2  0  0  0  0
 15 28  1  0  0  0  0
 16 17  1  0  0  0  0
 17 29  1  0  0  0  0
M  END
> <compound_name>
EDG-MED-0da5ad92-21

> <provenance>
{"isomeric_smiles": "Cc1c(cn[nH]1)NC(=O)Cc2cccc(c2)Cl", "inchi": "InChI=1S/C12H12ClN3O/c1-8-11(7-14-16-8)15-12(17)6-9-3-2-4-10(13)5-9/h2-5,7H,6H2,1H3,(H,14,16)(H,15,17)", "inchi_key": "YSMRCXUJRFLNNU-UHFFFAOYSA-N", "fixed_inchi": "InChI=1/C12H12ClN3O/c1-8-11(7-14-16-8)15-12(17)6-9-3-2-4-10(13)5-9/h2-5,7H,6H2,1H3,(H,14,16)(H,15,17)/f/h15-16H", "fixed_inchikey": "YSMRCXUJRFLNNU-LUXCBXFANA-N"}

> <data_format>
sdf

$$$$
