LIG(A-305)
  -OEChem-06042511323D

 26 27  0     0  0  0  0  0  0999 V2000
    6.9073   -0.0828   17.7761 O   0  0  0  0  0  0  0  0  0  0  0  0
    6.1824    0.5032   18.5592 C   0  0  0  0  0  0  0  0  0  0  0  0
    5.2315    1.4253   18.3322 N   0  0  0  0  0  0  0  0  0  0  0  0
    4.6776    1.9163   19.4942 N   0  0  0  0  0  0  0  0  0  0  0  0
    5.2936    1.2792   20.4362 C   0  0  0  0  0  0  0  0  0  0  0  0
    6.2085    0.4092   19.9302 N   0  0  0  0  0  0  0  0  0  0  0  0
    7.0085   -0.4609   20.6511 N   0  0  0  0  0  0  0  0  0  0  0  0
    8.1715   -0.0249   21.1771 C   0  0  0  0  0  0  0  0  0  0  0  0
    8.7506    0.9930   20.8020 O   0  0  0  0  0  0  0  0  0  0  0  0
    8.7075   -0.8610   22.3220 C   0  0  0  0  0  0  0  0  0  0  0  0
   10.1365   -0.5041   22.6690 C   0  0  0  0  0  0  0  0  0  0  0  0
   11.1885   -1.2322   22.1209 C   0  0  0  0  0  0  0  0  0  0  0  0
   12.4895   -0.8152   22.3299 C   0  0  0  0  0  0  0  0  0  0  0  0
   13.7904   -1.7193   21.5998 Cl  0  0  0  0  0  0  0  0  0  0  0  0
   10.4267    0.5999   23.4630 C   0  0  0  0  0  0  0  0  0  0  0  0
   11.7397    1.0018   23.6669 C   0  0  0  0  0  0  0  0  0  0  0  0
   12.7836    0.2997   23.0858 C   0  0  0  0  0  0  0  0  0  0  0  0
    4.9571    1.7236   17.4236 H   0  0  0  0  0  0  0  0  0  0  0  0
    5.1055    1.4202   21.4903 H   0  0  0  0  0  0  0  0  0  0  0  0
    6.7245   -1.4107   20.7817 H   0  0  0  0  0  0  0  0  0  0  0  0
    8.0760   -0.6958   23.2075 H   0  0  0  0  0  0  0  0  0  0  0  0
    8.6668   -1.9222   22.0354 H   0  0  0  0  0  0  0  0  0  0  0  0
   10.9893   -2.1177   21.5357 H   0  0  0  0  0  0  0  0  0  0  0  0
    9.6215    1.1508   23.9262 H   0  0  0  0  0  0  0  0  0  0  0  0
   11.9485    1.8653   24.2810 H   0  0  0  0  0  0  0  0  0  0  0  0
   13.8063    0.6193   23.2223 H   0  0  0  0  0  0  0  0  0  0  0  0
  1  2  2  0  0  0  0
  2  3  1  0  0  0  0
  2  6  1  0  0  0  0
  3  4  1  0  0  0  0
  3 18  1  0  0  0  0
  4  5  2  0  0  0  0
  5  6  1  0  0  0  0
  5 19  1  0  0  0  0
  6  7  1  0  0  0  0
  7  8  1  0  0  0  0
  7 20  1  0  0  0  0
  8  9  2  0  0  0  0
  8 10  1  0  0  0  0
 10 11  1  0  0  0  0
 10 21  1  0  0  0  0
 10 22  1  0  0  0  0
 11 12  2  0  0  0  0
 11 15  1  0  0  0  0
 12 13  1  0  0  0  0
 12 23  1  0  0  0  0
 13 14  1  0  0  0  0
 13 17  2  0  0  0  0
 15 16  2  0  0  0  0
 15 24  1  0  0  0  0
 16 17  1  0  0  0  0
 16 25  1  0  0  0  0
 17 26  1  0  0  0  0
M  END
> <compound_name>
JAN-GHE-5a013bed-4

> <provenance>
{"isomeric_smiles": "c1cc(cc(c1)Cl)CC(=O)Nn2cn[nH]c2=O", "inchi": "InChI=1S/C10H9ClN4O2/c11-8-3-1-2-7(4-8)5-9(16)14-15-6-12-13-10(15)17/h1-4,6H,5H2,(H,13,17)(H,14,16)", "inchi_key": "IADLNEMEFCQDCX-UHFFFAOYSA-N", "fixed_inchi": "InChI=1/C10H9ClN4O2/c11-8-3-1-2-7(4-8)5-9(16)14-15-6-12-13-10(15)17/h1-4,6H,5H2,(H,13,17)(H,14,16)/f/h13-14H", "fixed_inchikey": "IADLNEMEFCQDCX-KGCNKATMNA-N"}

> <data_format>
sdf

$$$$
