LIG(A-306)
  -OEChem-06042511403D

 34 36  0     0  0  0  0  0  0999 V2000
   14.1018   -1.4326   21.4396 Cl  0  0  0  0  0  0  0  0  0  0  0  0
   12.8040   -0.8236   22.4258 C   0  0  0  0  0  0  0  0  0  0  0  0
   13.0841    0.1003   23.4128 C   0  0  0  0  0  0  0  0  0  0  0  0
   12.0363    0.6023   24.1660 C   0  0  0  0  0  0  0  0  0  0  0  0
   10.7342    0.1953   23.9112 C   0  0  0  0  0  0  0  0  0  0  0  0
   11.5140   -1.2466   22.1680 C   0  0  0  0  0  0  0  0  0  0  0  0
   10.4561   -0.7167   22.9002 C   0  0  0  0  0  0  0  0  0  0  0  0
    9.0290   -1.0737   22.5454 C   0  0  0  0  0  0  0  0  0  0  0  0
    8.4198   -0.1577   21.5025 C   0  0  0  0  0  0  0  0  0  0  0  0
    8.9268    0.9294   21.2175 O   0  0  0  0  0  0  0  0  0  0  0  0
    7.2957   -0.6387   20.9207 N   0  0  0  0  0  0  0  0  0  0  0  0
    6.5805   -0.0346   19.8579 C   0  0  0  0  0  0  0  0  0  0  0  0
    6.9773   -0.2476   18.5398 C   0  0  0  0  0  0  0  0  0  0  0  0
    6.4121    0.3585   17.4869 N   0  0  0  0  0  0  0  0  0  0  0  0
    5.4082    1.2124   17.7201 C   0  0  0  0  0  0  0  0  0  0  0  0
    5.5146    0.8513   20.0731 C   0  0  0  0  0  0  0  0  0  0  0  0
    4.8628    1.2713   21.2012 N   0  0  0  0  0  0  0  0  0  0  0  0
    5.0920    0.9222   22.5941 C   0  0  0  0  0  0  0  0  0  0  0  0
    4.8974    1.5124   18.9872 C   0  0  0  0  0  0  0  0  0  0  0  0
    3.8885    2.3053   19.5904 C   0  0  0  0  0  0  0  0  0  0  0  0
    3.8687    2.1573   20.8984 N   0  0  0  0  0  0  0  0  0  0  0  0
   14.0984    0.4244   23.5934 H   0  0  0  0  0  0  0  0  0  0  0  0
   12.2330    1.3133   24.9548 H   0  0  0  0  0  0  0  0  0  0  0  0
    9.9258    0.5928   24.5069 H   0  0  0  0  0  0  0  0  0  0  0  0
   11.3277   -1.9849   21.4020 H   0  0  0  0  0  0  0  0  0  0  0  0
    9.0135   -2.1028   22.1572 H   0  0  0  0  0  0  0  0  0  0  0  0
    8.4183   -1.0170   23.4585 H   0  0  0  0  0  0  0  0  0  0  0  0
    6.9365   -1.5021   21.2749 H   0  0  0  0  0  0  0  0  0  0  0  0
    7.7857   -0.9399   18.3562 H   0  0  0  0  0  0  0  0  0  0  0  0
    4.9607    1.7049   16.8694 H   0  0  0  0  0  0  0  0  0  0  0  0
    6.1146    1.2085   22.8809 H   0  0  0  0  0  0  0  0  0  0  0  0
    4.3701    1.4563   23.2294 H   0  0  0  0  0  0  0  0  0  0  0  0
    4.9643   -0.1623   22.7260 H   0  0  0  0  0  0  0  0  0  0  0  0
    3.2181    2.9518   19.0435 H   0  0  0  0  0  0  0  0  0  0  0  0
  1  2  1  0  0  0  0
  2  3  2  0  0  0  0
  2  6  1  0  0  0  0
  3  4  1  0  0  0  0
  3 22  1  0  0  0  0
  4  5  2  0  0  0  0
  4 23  1  0  0  0  0
  5  7  1  0  0  0  0
  5 24  1  0  0  0  0
  6  7  2  0  0  0  0
  6 25  1  0  0  0  0
  7  8  1  0  0  0  0
  8  9  1  0  0  0  0
  8 26  1  0  0  0  0
  8 27  1  0  0  0  0
  9 10  2  0  0  0  0
  9 11  1  0  0  0  0
 11 12  1  0  0  0  0
 11 28  1  0  0  0  0
 12 13  2  0  0  0  0
 12 16  1  0  0  0  0
 13 14  1  0  0  0  0
 13 29  1  0  0  0  0
 14 15  2  0  0  0  0
 15 19  1  0  0  0  0
 15 30  1  0  0  0  0
 16 17  1  0  0  0  0
 16 19  2  0  0  0  0
 17 18  1  0  0  0  0
 17 21  1  0  0  0  0
 18 31  1  0  0  0  0
 18 32  1  0  0  0  0
 18 33  1  0  0  0  0
 19 20  1  0  0  0  0
 20 21  2  0  0  0  0
 20 34  1  0  0  0  0
M  END
> <compound_name>
RUB-POS-1325a9ea-14

> <provenance>
{"isomeric_smiles": "Cn1c2c(cncc2NC(=O)Cc3cccc(c3)Cl)cn1", "inchi": "InChI=1S/C15H13ClN4O/c1-20-15-11(8-18-20)7-17-9-13(15)19-14(21)6-10-3-2-4-12(16)5-10/h2-5,7-9H,6H2,1H3,(H,19,21)", "inchi_key": "YMBXBLIFBSFTRM-UHFFFAOYSA-N", "fixed_inchi": "InChI=1/C15H13ClN4O/c1-20-15-11(8-18-20)7-17-9-13(15)19-14(21)6-10-3-2-4-12(16)5-10/h2-5,7-9H,6H2,1H3,(H,19,21)/f/h19H", "fixed_inchikey": "YMBXBLIFBSFTRM-LILDFLRNNA-N"}

> <data_format>
sdf

$$$$
