LIG(A-305)
  -OEChem-06042511363D

 38 40  0     0  0  0  0  0  0999 V2000
    9.1196    0.5813   20.8960 O   0  0  0  0  0  0  0  0  0  0  0  0
    8.5116   -0.4688   21.0969 C   0  0  0  0  0  0  0  0  0  0  0  0
    8.9316   -1.4498   22.1759 C   0  0  0  0  0  0  0  0  0  0  0  0
   10.3246   -1.0828   22.6310 C   0  0  0  0  0  0  0  0  0  0  0  0
   11.4376   -1.5446   21.9351 C   0  0  0  0  0  0  0  0  0  0  0  0
   12.6896   -1.0566   22.2412 C   0  0  0  0  0  0  0  0  0  0  0  0
   14.0567   -1.6044   21.3152 Cl  0  0  0  0  0  0  0  0  0  0  0  0
   12.8785   -0.1256   23.2433 C   0  0  0  0  0  0  0  0  0  0  0  0
   11.7864    0.3163   23.9702 C   0  0  0  0  0  0  0  0  0  0  0  0
   10.5164   -0.1718   23.6711 C   0  0  0  0  0  0  0  0  0  0  0  0
    9.3784    0.1691   24.3480 O   0  0  0  0  0  0  0  0  0  0  0  0
    9.4702    1.1990   25.3321 C   0  0  0  0  0  0  0  0  0  0  0  0
    7.3987   -0.8368   20.4249 N   0  0  0  0  0  0  0  0  0  0  0  0
    6.6637   -0.0978   19.4848 C   0  0  0  0  0  0  0  0  0  0  0  0
    5.5046    0.5991   19.9338 C   0  0  0  0  0  0  0  0  0  0  0  0
    5.0715    0.6230   21.2838 C   0  0  0  0  0  0  0  0  0  0  0  0
    3.9715    1.3399   21.6558 C   0  0  0  0  0  0  0  0  0  0  0  0
    3.2465    2.0579   20.7198 C   0  0  0  0  0  0  0  0  0  0  0  0
    3.6296    2.0810   19.4128 C   0  0  0  0  0  0  0  0  0  0  0  0
    4.7686    1.3591   18.9818 C   0  0  0  0  0  0  0  0  0  0  0  0
    5.2437    1.3802   17.6488 C   0  0  0  0  0  0  0  0  0  0  0  0
    6.3218    0.7273   17.2309 N   0  0  0  0  0  0  0  0  0  0  0  0
    7.0038    0.0133   18.1369 C   0  0  0  0  0  0  0  0  0  0  0  0
    8.2348   -1.3905   23.0249 H   0  0  0  0  0  0  0  0  0  0  0  0
    8.9296   -2.4725   21.7707 H   0  0  0  0  0  0  0  0  0  0  0  0
   11.3206   -2.2841   21.1566 H   0  0  0  0  0  0  0  0  0  0  0  0
   13.8668    0.2534   23.4574 H   0  0  0  0  0  0  0  0  0  0  0  0
   11.9183    1.0355   24.7650 H   0  0  0  0  0  0  0  0  0  0  0  0
    8.4822    1.3606   25.7879 H   0  0  0  0  0  0  0  0  0  0  0  0
   10.1882    0.8998   26.1099 H   0  0  0  0  0  0  0  0  0  0  0  0
    9.8115    2.1306   24.8570 H   0  0  0  0  0  0  0  0  0  0  0  0
    7.0541   -1.7544   20.6228 H   0  0  0  0  0  0  0  0  0  0  0  0
    5.6202    0.0657   22.0286 H   0  0  0  0  0  0  0  0  0  0  0  0
    3.6632    1.3473   22.6908 H   0  0  0  0  0  0  0  0  0  0  0  0
    2.3683    2.6052   21.0291 H   0  0  0  0  0  0  0  0  0  0  0  0
    3.0588    2.6556   18.6984 H   0  0  0  0  0  0  0  0  0  0  0  0
    4.6944    1.9646   16.9255 H   0  0  0  0  0  0  0  0  0  0  0  0
    7.8823   -0.5155   17.7979 H   0  0  0  0  0  0  0  0  0  0  0  0
  1  2  2  0  0  0  0
  2  3  1  0  0  0  0
  2 13  1  0  0  0  0
  3  4  1  0  0  0  0
  3 24  1  0  0  0  0
  3 25  1  0  0  0  0
  4  5  2  0  0  0  0
  4 10  1  0  0  0  0
  5  6  1  0  0  0  0
  5 26  1  0  0  0  0
  6  7  1  0  0  0  0
  6  8  2  0  0  0  0
  8  9  1  0  0  0  0
  8 27  1  0  0  0  0
  9 10  2  0  0  0  0
  9 28  1  0  0  0  0
 10 11  1  0  0  0  0
 11 12  1  0  0  0  0
 12 29  1  0  0  0  0
 12 30  1  0  0  0  0
 12 31  1  0  0  0  0
 13 14  1  0  0  0  0
 13 32  1  0  0  0  0
 14 15  2  0  0  0  0
 14 23  1  0  0  0  0
 15 16  1  0  0  0  0
 15 20  1  0  0  0  0
 16 17  2  0  0  0  0
 16 33  1  0  0  0  0
 17 18  1  0  0  0  0
 17 34  1  0  0  0  0
 18 19  2  0  0  0  0
 18 35  1  0  0  0  0
 19 20  1  0  0  0  0
 19 36  1  0  0  0  0
 20 21  2  0  0  0  0
 21 22  1  0  0  0  0
 21 37  1  0  0  0  0
 22 23  2  0  0  0  0
 23 38  1  0  0  0  0
M  END
> <compound_name>
MAT-POS-3b92565d-1

> <provenance>
{"isomeric_smiles": "COc1ccc(cc1CC(=O)Nc2cncc3c2cccc3)Cl", "inchi": "InChI=1S/C18H15ClN2O2/c1-23-17-7-6-14(19)8-13(17)9-18(22)21-16-11-20-10-12-4-2-3-5-15(12)16/h2-8,10-11H,9H2,1H3,(H,21,22)", "inchi_key": "UFUGOWGYSILVPI-UHFFFAOYSA-N", "fixed_inchi": "InChI=1/C18H15ClN2O2/c1-23-17-7-6-14(19)8-13(17)9-18(22)21-16-11-20-10-12-4-2-3-5-15(12)16/h2-8,10-11H,9H2,1H3,(H,21,22)/f/h21H", "fixed_inchikey": "UFUGOWGYSILVPI-PKSOQXRJNA-N"}

> <data_format>
sdf

$$$$
