LIG(A-305)
  -OEChem-06042511313D

 44 45  0     0  0  0  0  0  0999 V2000
    8.9626    0.6151   20.9445 O   0  0  0  0  0  0  0  0  0  0  0  0
    8.3286   -0.3880   21.2664 C   0  0  0  0  0  0  0  0  0  0  0  0
    7.1207   -0.7010   20.7593 N   0  0  0  0  0  0  0  0  0  0  0  0
    6.4917    0.0070   19.7073 C   0  0  0  0  0  0  0  0  0  0  0  0
    5.3756    0.8109   19.9802 C   0  0  0  0  0  0  0  0  0  0  0  0
    4.8375    0.9809   21.3792 C   0  0  0  0  0  0  0  0  0  0  0  0
    4.8207    1.5149   18.9152 C   0  0  0  0  0  0  0  0  0  0  0  0
    5.3838    1.4110   17.6602 C   0  0  0  0  0  0  0  0  0  0  0  0
    6.4538    0.6540   17.3893 N   0  0  0  0  0  0  0  0  0  0  0  0
    6.9878   -0.0350   18.4043 C   0  0  0  0  0  0  0  0  0  0  0  0
    8.8636   -1.3920   22.2694 C   0  0  0  0  0  0  0  0  0  0  0  0
   10.2325   -0.9659   22.7475 C   0  0  0  0  0  0  0  0  0  0  0  0
   11.3786   -1.4709   22.1446 C   0  0  0  0  0  0  0  0  0  0  0  0
   12.6165   -0.9958   22.5167 C   0  0  0  0  0  0  0  0  0  0  0  0
   14.0386   -1.6417   21.7337 Cl  0  0  0  0  0  0  0  0  0  0  0  0
   12.7574   -0.0398   23.5027 C   0  0  0  0  0  0  0  0  0  0  0  0
   11.6264    0.4411   24.1446 C   0  0  0  0  0  0  0  0  0  0  0  0
   10.3724   -0.0030   23.7465 C   0  0  0  0  0  0  0  0  0  0  0  0
    9.1974    0.5550   24.1815 O   0  0  0  0  0  0  0  0  0  0  0  0
    8.8643    0.4829   25.5784 C   0  0  0  0  0  0  0  0  0  0  0  0
    7.3722    0.6748   25.7083 C   0  0  0  0  0  0  0  0  0  0  0  0
    6.5583   -0.4572   25.0793 C   0  0  0  0  0  0  0  0  0  0  0  0
    5.0633   -0.2892   25.2312 C   0  0  0  0  0  0  0  0  0  0  0  0
    6.6372   -1.4838   21.1511 H   0  0  0  0  0  0  0  0  0  0  0  0
    5.6169    1.4159   22.0221 H   0  0  0  0  0  0  0  0  0  0  0  0
    3.9647    1.6500   21.3574 H   0  0  0  0  0  0  0  0  0  0  0  0
    4.5381    0.0005   21.7783 H   0  0  0  0  0  0  0  0  0  0  0  0
    3.9534    2.1395   19.0707 H   0  0  0  0  0  0  0  0  0  0  0  0
    4.9368    1.9710   16.8521 H   0  0  0  0  0  0  0  0  0  0  0  0
    7.8482   -0.6563   18.2042 H   0  0  0  0  0  0  0  0  0  0  0  0
    8.1790   -1.4486   23.1285 H   0  0  0  0  0  0  0  0  0  0  0  0
    8.9358   -2.3805   21.7923 H   0  0  0  0  0  0  0  0  0  0  0  0
   11.2984   -2.2347   21.3853 H   0  0  0  0  0  0  0  0  0  0  0  0
   13.7365    0.3289   23.7708 H   0  0  0  0  0  0  0  0  0  0  0  0
   11.7201    1.1561   24.9487 H   0  0  0  0  0  0  0  0  0  0  0  0
    9.1515   -0.4995   25.9813 H   0  0  0  0  0  0  0  0  0  0  0  0
    9.3927    1.2742   26.1303 H   0  0  0  0  0  0  0  0  0  0  0  0
    7.1198    0.7337   26.7773 H   0  0  0  0  0  0  0  0  0  0  0  0
    7.0975    1.6184   25.2143 H   0  0  0  0  0  0  0  0  0  0  0  0
    6.7955   -0.5002   24.0060 H   0  0  0  0  0  0  0  0  0  0  0  0
    6.8517   -1.4032   25.5578 H   0  0  0  0  0  0  0  0  0  0  0  0
    4.5484   -1.1375   24.7564 H   0  0  0  0  0  0  0  0  0  0  0  0
    4.8050   -0.2553   26.2998 H   0  0  0  0  0  0  0  0  0  0  0  0
    4.7487    0.6476   24.7480 H   0  0  0  0  0  0  0  0  0  0  0  0
  1  2  2  0  0  0  0
  2  3  1  0  0  0  0
  2 11  1  0  0  0  0
  3  4  1  0  0  0  0
  3 24  1  0  0  0  0
  4  5  2  0  0  0  0
  4 10  1  0  0  0  0
  5  6  1  0  0  0  0
  5  7  1  0  0  0  0
  6 25  1  0  0  0  0
  6 26  1  0  0  0  0
  6 27  1  0  0  0  0
  7  8  2  0  0  0  0
  7 28  1  0  0  0  0
  8  9  1  0  0  0  0
  8 29  1  0  0  0  0
  9 10  2  0  0  0  0
 10 30  1  0  0  0  0
 11 12  1  0  0  0  0
 11 31  1  0  0  0  0
 11 32  1  0  0  0  0
 12 13  2  0  0  0  0
 12 18  1  0  0  0  0
 13 14  1  0  0  0  0
 13 33  1  0  0  0  0
 14 15  1  0  0  0  0
 14 16  2  0  0  0  0
 16 17  1  0  0  0  0
 16 34  1  0  0  0  0
 17 18  2  0  0  0  0
 17 35  1  0  0  0  0
 18 19  1  0  0  0  0
 19 20  1  0  0  0  0
 20 21  1  0  0  0  0
 20 36  1  0  0  0  0
 20 37  1  0  0  0  0
 21 22  1  0  0  0  0
 21 38  1  0  0  0  0
 21 39  1  0  0  0  0
 22 23  1  0  0  0  0
 22 40  1  0  0  0  0
 22 41  1  0  0  0  0
 23 42  1  0  0  0  0
 23 43  1  0  0  0  0
 23 44  1  0  0  0  0
M  END
> <compound_name>
EDG-MED-0da5ad92-7

> <provenance>
{"isomeric_smiles": "CCCCOc1ccc(cc1CC(=O)Nc2cnccc2C)Cl", "inchi": "InChI=1S/C18H21ClN2O2/c1-3-4-9-23-17-6-5-15(19)10-14(17)11-18(22)21-16-12-20-8-7-13(16)2/h5-8,10,12H,3-4,9,11H2,1-2H3,(H,21,22)", "inchi_key": "BNLQGZVZNCOJKF-UHFFFAOYSA-N", "fixed_inchi": "InChI=1/C18H21ClN2O2/c1-3-4-9-23-17-6-5-15(19)10-14(17)11-18(22)21-16-12-20-8-7-13(16)2/h5-8,10,12H,3-4,9,11H2,1-2H3,(H,21,22)/f/h21H", "fixed_inchikey": "BNLQGZVZNCOJKF-PKSOQXRJNA-N"}

> <data_format>
sdf

$$$$
