LIG(A-305)
  -OEChem-06042511363D

 52 55  0     0  0  0  0  0  0999 V2000
    8.9904    1.5585   21.1232 O   0  0  0  0  0  0  0  0  0  0  0  0
    8.8224    0.5055   21.7142 C   0  0  0  0  0  0  0  0  0  0  0  0
    8.1022   -0.6664   21.0403 C   0  0  0  0  0  0  0  0  0  0  0  0
    7.2322   -0.2104   19.9753 N   0  0  0  0  0  0  0  0  0  0  0  0
    6.0712    0.4987   20.0504 C   0  0  0  0  0  0  0  0  0  0  0  0
    5.2423    0.8738   21.0974 C   0  0  0  0  0  0  0  0  0  0  0  0
    4.1154    1.6218   20.7885 C   0  0  0  0  0  0  0  0  0  0  0  0
    3.8353    1.9888   19.4705 C   0  0  0  0  0  0  0  0  0  0  0  0
    4.6732    1.6077   18.4285 C   0  0  0  0  0  0  0  0  0  0  0  0
    5.7972    0.8427   18.7284 C   0  0  0  0  0  0  0  0  0  0  0  0
    6.7781    0.3086   17.9234 N   0  0  0  0  0  0  0  0  0  0  0  0
    7.6231   -0.3295   18.6813 N   0  0  0  0  0  0  0  0  0  0  0  0
    9.2474    0.3185   22.9982 N   0  0  0  0  0  0  0  0  0  0  0  0
    9.2264   -0.9395   23.6742 C   0  0  0  0  0  0  0  0  0  0  0  0
    8.2894   -1.1914   24.6733 C   0  0  0  0  0  0  0  0  0  0  0  0
    8.2634   -2.4184   25.3143 C   0  0  0  0  0  0  0  0  0  0  0  0
   10.1413   -1.9235   23.3332 C   0  0  0  0  0  0  0  0  0  0  0  0
   10.1142   -3.1515   23.9652 C   0  0  0  0  0  0  0  0  0  0  0  0
    9.1733   -3.4284   24.9663 C   0  0  0  0  0  0  0  0  0  0  0  0
    9.1422   -4.6614   25.5853 N   0  0  0  0  0  0  0  0  0  0  0  0
    9.7491   -5.8195   24.9553 C   0  0  0  0  0  0  0  0  0  0  0  0
    8.1572   -4.9723   26.6104 C   0  0  0  0  0  0  0  0  0  0  0  0
    9.7715    1.4755   23.7421 C   0  0  0  0  0  0  0  0  0  0  0  0
   11.2336    1.7484   23.4860 C   0  0  0  0  0  0  0  0  0  0  0  0
   11.6366    2.9043   22.8230 C   0  0  0  0  0  0  0  0  0  0  0  0
   12.9666    3.0622   22.4719 C   0  0  0  0  0  0  0  0  0  0  0  0
   13.4717    4.5372   21.6918 Cl  0  0  0  0  0  0  0  0  0  0  0  0
   13.9075    2.0952   22.7489 C   0  0  0  0  0  0  0  0  0  0  0  0
   13.5145    0.9632   23.4389 C   0  0  0  0  0  0  0  0  0  0  0  0
   12.1915    0.8003   23.8160 C   0  0  0  0  0  0  0  0  0  0  0  0
    8.8518   -1.3534   20.6206 H   0  0  0  0  0  0  0  0  0  0  0  0
    7.4995   -1.1965   21.7925 H   0  0  0  0  0  0  0  0  0  0  0  0
    5.4661    0.5937   22.1162 H   0  0  0  0  0  0  0  0  0  0  0  0
    3.4448    1.9248   21.5790 H   0  0  0  0  0  0  0  0  0  0  0  0
    2.9551    2.5772   19.2575 H   0  0  0  0  0  0  0  0  0  0  0  0
    4.4575    1.8982   17.4109 H   0  0  0  0  0  0  0  0  0  0  0  0
    7.5795   -0.4257   24.9494 H   0  0  0  0  0  0  0  0  0  0  0  0
    7.5349   -2.6001   26.0907 H   0  0  0  0  0  0  0  0  0  0  0  0
   10.8793   -1.7290   22.5690 H   0  0  0  0  0  0  0  0  0  0  0  0
   10.8294   -3.9102   23.6835 H   0  0  0  0  0  0  0  0  0  0  0  0
    9.6193   -6.6997   25.6022 H   0  0  0  0  0  0  0  0  0  0  0  0
    9.2660   -6.0038   23.9843 H   0  0  0  0  0  0  0  0  0  0  0  0
   10.8222   -5.6328   24.8014 H   0  0  0  0  0  0  0  0  0  0  0  0
    8.3110   -6.0014   26.9673 H   0  0  0  0  0  0  0  0  0  0  0  0
    8.2697   -4.2721   27.4513 H   0  0  0  0  0  0  0  0  0  0  0  0
    7.1461   -4.8782   26.1876 H   0  0  0  0  0  0  0  0  0  0  0  0
    9.1956    2.3660   23.4505 H   0  0  0  0  0  0  0  0  0  0  0  0
    9.6363    1.2874   24.8175 H   0  0  0  0  0  0  0  0  0  0  0  0
   10.9164    3.6729   22.5840 H   0  0  0  0  0  0  0  0  0  0  0  0
   14.9329    2.2187   22.4330 H   0  0  0  0  0  0  0  0  0  0  0  0
   14.2415    0.2034   23.6848 H   0  0  0  0  0  0  0  0  0  0  0  0
   11.9015   -0.0772   24.3748 H   0  0  0  0  0  0  0  0  0  0  0  0
  1  2  2  0  0  0  0
  2  3  1  0  0  0  0
  2 13  1  0  0  0  0
  3  4  1  0  0  0  0
  3 31  1  0  0  0  0
  3 32  1  0  0  0  0
  4  5  1  0  0  0  0
  4 12  1  0  0  0  0
  5  6  2  0  0  0  0
  5 10  1  0  0  0  0
  6  7  1  0  0  0  0
  6 33  1  0  0  0  0
  7  8  2  0  0  0  0
  7 34  1  0  0  0  0
  8  9  1  0  0  0  0
  8 35  1  0  0  0  0
  9 10  2  0  0  0  0
  9 36  1  0  0  0  0
 10 11  1  0  0  0  0
 11 12  2  0  0  0  0
 13 14  1  0  0  0  0
 13 23  1  0  0  0  0
 14 15  2  0  0  0  0
 14 17  1  0  0  0  0
 15 16  1  0  0  0  0
 15 37  1  0  0  0  0
 16 19  2  0  0  0  0
 16 38  1  0  0  0  0
 17 18  2  0  0  0  0
 17 39  1  0  0  0  0
 18 19  1  0  0  0  0
 18 40  1  0  0  0  0
 19 20  1  0  0  0  0
 20 21  1  0  0  0  0
 20 22  1  0  0  0  0
 21 41  1  0  0  0  0
 21 42  1  0  0  0  0
 21 43  1  0  0  0  0
 22 44  1  0  0  0  0
 22 45  1  0  0  0  0
 22 46  1  0  0  0  0
 23 24  1  0  0  0  0
 23 47  1  0  0  0  0
 23 48  1  0  0  0  0
 24 25  2  0  0  0  0
 24 30  1  0  0  0  0
 25 26  1  0  0  0  0
 25 49  1  0  0  0  0
 26 27  1  0  0  0  0
 26 28  2  0  0  0  0
 28 29  1  0  0  0  0
 28 50  1  0  0  0  0
 29 30  2  0  0  0  0
 29 51  1  0  0  0  0
 30 52  1  0  0  0  0
M  END
> <compound_name>
ALP-POS-6d04362c-2

> <provenance>
{"isomeric_smiles": "CN(C)c1ccc(cc1)N(Cc2cccc(c2)Cl)C(=O)Cn3c4ccccc4nn3", "inchi": "InChI=1S/C23H22ClN5O/c1-27(2)19-10-12-20(13-11-19)28(15-17-6-5-7-18(24)14-17)23(30)16-29-22-9-4-3-8-21(22)25-26-29/h3-14H,15-16H2,1-2H3", "inchi_key": "DJHGLSHYLFLFFG-UHFFFAOYSA-N", "fixed_inchi": "InChI=1/C23H22ClN5O/c1-27(2)19-10-12-20(13-11-19)28(15-17-6-5-7-18(24)14-17)23(30)16-29-22-9-4-3-8-21(22)25-26-29/h3-14H,15-16H2,1-2H3", "fixed_inchikey": "DJHGLSHYLFLFFG-UHFFFAOYNA-N"}

> <data_format>
sdf

$$$$
