LIG(A-305)
  -OEChem-06042511363D

 33 35  0     0  0  0  0  0  0999 V2000
    8.8128    0.8950   21.0955 O   0  0  0  0  0  0  0  0  0  0  0  0
    8.3578   -0.2230   21.3146 C   0  0  0  0  0  0  0  0  0  0  0  0
    8.8689   -1.0890   22.4515 C   0  0  0  0  0  0  0  0  0  0  0  0
   10.3090   -0.7550   22.7714 C   0  0  0  0  0  0  0  0  0  0  0  0
   10.6311    0.2740   23.6483 C   0  0  0  0  0  0  0  0  0  0  0  0
   11.9512    0.6590   23.8371 C   0  0  0  0  0  0  0  0  0  0  0  0
   12.9721    0.0059   23.1650 C   0  0  0  0  0  0  0  0  0  0  0  0
   11.3349   -1.4121   22.1033 C   0  0  0  0  0  0  0  0  0  0  0  0
   12.6419   -1.0241   22.3051 C   0  0  0  0  0  0  0  0  0  0  0  0
   13.9038   -1.8402   21.4240 Cl  0  0  0  0  0  0  0  0  0  0  0  0
    7.4627   -0.7920   20.5117 N   0  0  0  0  0  0  0  0  0  0  0  0
    6.6036   -0.2430   19.6408 C   0  0  0  0  0  0  0  0  0  0  0  0
    5.4857    0.5560   20.0769 C   0  0  0  0  0  0  0  0  0  0  0  0
    4.8276    1.3110   19.0649 C   0  0  0  0  0  0  0  0  0  0  0  0
    5.3785    1.2749   17.7698 C   0  0  0  0  0  0  0  0  0  0  0  0
    6.4484    0.5929   17.4588 N   0  0  0  0  0  0  0  0  0  0  0  0
    7.0335   -0.1841   18.3857 N   0  0  0  0  0  0  0  0  0  0  0  0
    4.9399    0.5851   21.3849 C   0  0  0  0  0  0  0  0  0  0  0  0
    3.8029    1.2991   21.6580 C   0  0  0  0  0  0  0  0  0  0  0  0
    3.1608    2.0161   20.6641 C   0  0  0  0  0  0  0  0  0  0  0  0
    3.6497    2.0320   19.3930 C   0  0  0  0  0  0  0  0  0  0  0  0
    8.2507   -0.9145   23.3445 H   0  0  0  0  0  0  0  0  0  0  0  0
    8.8000   -2.1471   22.1589 H   0  0  0  0  0  0  0  0  0  0  0  0
    9.8451    0.7800   24.1891 H   0  0  0  0  0  0  0  0  0  0  0  0
   12.1837    1.4707   24.5105 H   0  0  0  0  0  0  0  0  0  0  0  0
   14.0024    0.2955   23.3101 H   0  0  0  0  0  0  0  0  0  0  0  0
   11.1089   -2.2241   21.4280 H   0  0  0  0  0  0  0  0  0  0  0  0
    7.4244   -1.7898   20.5665 H   0  0  0  0  0  0  0  0  0  0  0  0
    4.8900    1.8419   16.9912 H   0  0  0  0  0  0  0  0  0  0  0  0
    5.4272    0.0366   22.1774 H   0  0  0  0  0  0  0  0  0  0  0  0
    3.4030    1.3024   22.6613 H   0  0  0  0  0  0  0  0  0  0  0  0
    2.2630    2.5687   20.8985 H   0  0  0  0  0  0  0  0  0  0  0  0
    3.1372    2.5976   18.6288 H   0  0  0  0  0  0  0  0  0  0  0  0
  1  2  2  0  0  0  0
  2  3  1  0  0  0  0
  2 11  1  0  0  0  0
  3  4  1  0  0  0  0
  3 22  1  0  0  0  0
  3 23  1  0  0  0  0
  4  5  2  0  0  0  0
  4  8  1  0  0  0  0
  5  6  1  0  0  0  0
  5 24  1  0  0  0  0
  6  7  2  0  0  0  0
  6 25  1  0  0  0  0
  7  9  1  0  0  0  0
  7 26  1  0  0  0  0
  8  9  2  0  0  0  0
  8 27  1  0  0  0  0
  9 10  1  0  0  0  0
 11 12  1  0  0  0  0
 11 28  1  0  0  0  0
 12 13  2  0  0  0  0
 12 17  1  0  0  0  0
 13 14  1  0  0  0  0
 13 18  1  0  0  0  0
 14 15  2  0  0  0  0
 14 21  1  0  0  0  0
 15 16  1  0  0  0  0
 15 29  1  0  0  0  0
 16 17  2  0  0  0  0
 18 19  2  0  0  0  0
 18 30  1  0  0  0  0
 19 20  1  0  0  0  0
 19 31  1  0  0  0  0
 20 21  2  0  0  0  0
 20 32  1  0  0  0  0
 21 33  1  0  0  0  0
M  END
> <compound_name>
EDJ-MED-50fe53e8-1

> <provenance>
{"isomeric_smiles": "c1ccc2c(c1)cnnc2NC(=O)Cc3cccc(c3)Cl", "inchi": "InChI=1S/C16H12ClN3O/c17-13-6-3-4-11(8-13)9-15(21)19-16-14-7-2-1-5-12(14)10-18-20-16/h1-8,10H,9H2,(H,19,20,21)", "inchi_key": "ATNZGZHLHMEMFV-UHFFFAOYSA-N", "fixed_inchi": "InChI=1/C16H12ClN3O/c17-13-6-3-4-11(8-13)9-15(21)19-16-14-7-2-1-5-12(14)10-18-20-16/h1-8,10H,9H2,(H,19,20,21)/f/h19H", "fixed_inchikey": "ATNZGZHLHMEMFV-LILDFLRNNA-N"}

> <data_format>
sdf

$$$$
