LIG(A-305)
  -OEChem-06042511313D

 37 40  0     1  0  0  0  0  0999 V2000
    5.7569    0.6572   19.3582 N   0  0  0  0  0  0  0  0  0  0  0  0
    7.3409   -0.6009   20.6611 N   0  0  0  0  0  0  0  0  0  0  0  0
    6.7737    0.6542   17.4061 N   0  0  0  0  0  0  0  0  0  0  0  0
    5.3412    1.9862   21.4683 C   0  0  0  0  0  0  0  0  0  0  0  0
   12.8672    0.0447   23.4156 C   0  0  0  0  0  0  0  0  0  0  0  0
    8.9811    0.9140   21.0189 O   0  0  0  0  0  0  0  0  0  0  0  0
    6.9349   -0.0289   19.4711 C   0  0  0  0  0  0  0  0  0  0  0  0
   11.8864    0.6518   24.1817 C   0  0  0  0  0  0  0  0  0  0  0  0
    8.7011   -0.8280   22.6759 C   0  0  2  0  0  0  0  0  0  0  0  0
    7.7843   -0.2940   23.7940 C   0  0  0  0  0  0  0  0  0  0  0  0
    8.2784    1.0540   24.2580 C   0  0  0  0  0  0  0  0  0  0  0  0
    4.8430    1.0153   20.4583 C   0  0  0  0  0  0  0  0  0  0  0  0
   10.1702   -0.5601   22.9568 C   0  0  0  0  0  0  0  0  0  0  0  0
    5.7108    1.0432   18.0472 C   0  0  0  0  0  0  0  0  0  0  0  0
    4.2871    2.3943   20.4924 C   0  0  0  0  0  0  0  0  0  0  0  0
   11.1750   -1.1722   22.2077 C   0  0  0  0  0  0  0  0  0  0  0  0
   12.4991   -0.8643   22.4486 C   0  0  0  0  0  0  0  0  0  0  0  0
    7.5727   -0.0279   18.3141 N   0  0  0  0  0  0  0  0  0  0  0  0
    9.6404    0.9949   24.7549 O   0  0  0  0  0  0  0  0  0  0  0  0
    8.3740   -0.0890   21.3780 C   0  0  0  0  0  0  0  0  0  0  0  0
   10.5493    0.3499   23.9498 C   0  0  0  0  0  0  0  0  0  0  0  0
   13.7339   -1.6973   21.5514 Cl  0  0  0  0  0  0  0  0  0  0  0  0
    6.8631   -1.4105   21.0022 H   0  0  0  0  0  0  0  0  0  0  0  0
    5.0867    1.8548   22.5303 H   0  0  0  0  0  0  0  0  0  0  0  0
    6.3585    2.3959   21.3829 H   0  0  0  0  0  0  0  0  0  0  0  0
   13.9090    0.2813   23.5745 H   0  0  0  0  0  0  0  0  0  0  0  0
   12.1584    1.3554   24.9545 H   0  0  0  0  0  0  0  0  0  0  0  0
    8.5343   -1.9072   22.5436 H   0  0  0  0  0  0  0  0  0  0  0  0
    6.7585   -0.1946   23.4092 H   0  0  0  0  0  0  0  0  0  0  0  0
    7.7920   -0.9970   24.6400 H   0  0  0  0  0  0  0  0  0  0  0  0
    8.2395    1.7563   23.4122 H   0  0  0  0  0  0  0  0  0  0  0  0
    7.6222    1.4140   25.0641 H   0  0  0  0  0  0  0  0  0  0  0  0
    4.1869    0.2157   20.8327 H   0  0  0  0  0  0  0  0  0  0  0  0
    4.8983    1.5985   17.6023 H   0  0  0  0  0  0  0  0  0  0  0  0
    4.5274    3.1047   19.6877 H   0  0  0  0  0  0  0  0  0  0  0  0
    3.2557    2.5637   20.8351 H   0  0  0  0  0  0  0  0  0  0  0  0
   10.9175   -1.8865   21.4397 H   0  0  0  0  0  0  0  0  0  0  0  0
  1  7  1  0  0  0  0
  1 12  1  0  0  0  0
  1 14  1  0  0  0  0
  2  7  1  0  0  0  0
  2 20  1  0  0  0  0
  2 23  1  0  0  0  0
  3 14  2  0  0  0  0
  3 18  1  0  0  0  0
  4 12  1  0  0  0  0
  4 15  1  0  0  0  0
  4 24  1  0  0  0  0
  4 25  1  0  0  0  0
  5  8  2  0  0  0  0
  5 17  1  0  0  0  0
  5 26  1  0  0  0  0
  6 20  2  0  0  0  0
  7 18  2  0  0  0  0
  8 21  1  0  0  0  0
  8 27  1  0  0  0  0
  9 10  1  0  0  0  0
  9 13  1  0  0  0  0
  9 20  1  0  0  0  0
  9 28  1  0  0  0  0
 10 11  1  0  0  0  0
 10 29  1  0  0  0  0
 10 30  1  0  0  0  0
 11 19  1  0  0  0  0
 11 31  1  0  0  0  0
 11 32  1  0  0  0  0
 12 15  1  0  0  0  0
 12 33  1  0  0  0  0
 13 16  1  0  0  0  0
 13 21  2  0  0  0  0
 14 34  1  0  0  0  0
 15 35  1  0  0  0  0
 15 36  1  0  0  0  0
 16 17  2  0  0  0  0
 16 37  1  0  0  0  0
 17 22  1  0  0  0  0
 19 21  1  0  0  0  0
M  END
> <compound_name>
JAG-UCB-a3ef7265-20

> <provenance>
{"isomeric_smiles": "c1cc2c(cc1Cl)[C@@H](CCO2)C(=O)Nc3nncn3C4CC4", "inchi": "InChI=1S/C15H15ClN4O2/c16-9-1-4-13-12(7-9)11(5-6-22-13)14(21)18-15-19-17-8-20(15)10-2-3-10/h1,4,7-8,10-11H,2-3,5-6H2,(H,18,19,21)/t11-/m1/s1", "inchi_key": "MMSFMHOFPDOWCH-LLVKDONJSA-N", "fixed_inchi": "InChI=1/C15H15ClN4O2/c16-9-1-4-13-12(7-9)11(5-6-22-13)14(21)18-15-19-17-8-20(15)10-2-3-10/h1,4,7-8,10-11H,2-3,5-6H2,(H,18,19,21)/t11-/m1/s1/f/h18H", "fixed_inchikey": "MMSFMHOFPDOWCH-GZURDMDWNA-N"}

> <data_format>
sdf

$$$$
