LIG(A-305)
  -OEChem-06042511313D

 44 47  0     0  0  0  0  0  0999 V2000
    6.6598    0.9079   16.8122 O   0  0  0  0  0  0  0  0  0  0  0  0
    6.1319    0.7480   17.9153 C   0  0  0  0  0  0  0  0  0  0  0  0
    6.5029   -0.2801   18.8343 C   0  0  0  0  0  0  0  0  0  0  0  0
    5.1692    1.6182   18.3495 N   0  0  0  0  0  0  0  0  0  0  0  0
    4.5704    1.5693   19.5986 C   0  0  0  0  0  0  0  0  0  0  0  0
    3.5867    2.4925   19.9458 C   0  0  0  0  0  0  0  0  0  0  0  0
    2.9709    2.4046   21.1819 C   0  0  0  0  0  0  0  0  0  0  0  0
    3.3228    1.4125   22.0708 C   0  0  0  0  0  0  0  0  0  0  0  0
    4.3096    0.4953   21.7477 C   0  0  0  0  0  0  0  0  0  0  0  0
    4.9454    0.5592   20.5085 C   0  0  0  0  0  0  0  0  0  0  0  0
    5.9661   -0.3950   20.0784 C   0  0  0  0  0  0  0  0  0  0  0  0
    6.3940   -1.5511   20.9453 C   0  0  0  0  0  0  0  0  0  0  0  0
    5.5948   -2.4619   21.1364 O   0  0  0  0  0  0  0  0  0  0  0  0
    7.6501   -1.5904   21.4440 N   0  0  0  0  0  0  0  0  0  0  0  0
    8.0680   -2.7214   22.2869 C   0  0  0  0  0  0  0  0  0  0  0  0
    8.7583   -2.2236   23.5448 C   0  0  0  0  0  0  0  0  0  0  0  0
    9.8575   -1.3148   23.1976 N   0  0  0  0  0  0  0  0  0  0  0  0
    9.4685   -0.1807   22.3507 C   0  0  0  0  0  0  0  0  0  0  0  0
    8.7382   -0.6576   21.0969 C   0  0  0  0  0  0  0  0  0  0  0  0
   11.1864   -1.6261   23.4894 C   0  0  0  0  0  0  0  0  0  0  0  0
   11.5175   -2.2612   24.6923 C   0  0  0  0  0  0  0  0  0  0  0  0
   12.8395   -2.5865   24.9651 C   0  0  0  0  0  0  0  0  0  0  0  0
   13.8344   -2.2847   24.0599 C   0  0  0  0  0  0  0  0  0  0  0  0
   13.5163   -1.6576   22.8710 C   0  0  0  0  0  0  0  0  0  0  0  0
   12.2033   -1.3223   22.5782 C   0  0  0  0  0  0  0  0  0  0  0  0
    7.2456   -1.0011   18.5263 H   0  0  0  0  0  0  0  0  0  0  0  0
    4.8782    2.3404   17.7252 H   0  0  0  0  0  0  0  0  0  0  0  0
    3.3060    3.2728   19.2539 H   0  0  0  0  0  0  0  0  0  0  0  0
    2.2080    3.1197   21.4522 H   0  0  0  0  0  0  0  0  0  0  0  0
    2.8254    1.3493   23.0274 H   0  0  0  0  0  0  0  0  0  0  0  0
    4.5867   -0.2705   22.4569 H   0  0  0  0  0  0  0  0  0  0  0  0
    7.1818   -3.3089   22.5692 H   0  0  0  0  0  0  0  0  0  0  0  0
    8.7640   -3.3572   21.7200 H   0  0  0  0  0  0  0  0  0  0  0  0
    8.0293   -1.6886   24.1712 H   0  0  0  0  0  0  0  0  0  0  0  0
    9.1601   -3.0826   24.1023 H   0  0  0  0  0  0  0  0  0  0  0  0
    8.8045    0.4840   22.9227 H   0  0  0  0  0  0  0  0  0  0  0  0
   10.3718    0.3716   22.0525 H   0  0  0  0  0  0  0  0  0  0  0  0
    9.4536   -1.1688   20.4359 H   0  0  0  0  0  0  0  0  0  0  0  0
    8.3137    0.2125   20.5745 H   0  0  0  0  0  0  0  0  0  0  0  0
   10.7445   -2.4981   25.4083 H   0  0  0  0  0  0  0  0  0  0  0  0
   13.0901   -3.0793   25.8929 H   0  0  0  0  0  0  0  0  0  0  0  0
   14.8609   -2.5381   24.2800 H   0  0  0  0  0  0  0  0  0  0  0  0
   14.2980   -1.4262   22.1626 H   0  0  0  0  0  0  0  0  0  0  0  0
   11.9661   -0.8274   21.6481 H   0  0  0  0  0  0  0  0  0  0  0  0
  1  2  2  0  0  0  0
  2  3  1  0  0  0  0
  2  4  1  0  0  0  0
  3 11  2  0  0  0  0
  3 26  1  0  0  0  0
  4  5  1  0  0  0  0
  4 27  1  0  0  0  0
  5  6  2  0  0  0  0
  5 10  1  0  0  0  0
  6  7  1  0  0  0  0
  6 28  1  0  0  0  0
  7  8  2  0  0  0  0
  7 29  1  0  0  0  0
  8  9  1  0  0  0  0
  8 30  1  0  0  0  0
  9 10  2  0  0  0  0
  9 31  1  0  0  0  0
 10 11  1  0  0  0  0
 11 12  1  0  0  0  0
 12 13  2  0  0  0  0
 12 14  1  0  0  0  0
 14 15  1  0  0  0  0
 14 19  1  0  0  0  0
 15 16  1  0  0  0  0
 15 32  1  0  0  0  0
 15 33  1  0  0  0  0
 16 17  1  0  0  0  0
 16 34  1  0  0  0  0
 16 35  1  0  0  0  0
 17 18  1  0  0  0  0
 17 20  1  0  0  0  0
 18 19  1  0  0  0  0
 18 36  1  0  0  0  0
 18 37  1  0  0  0  0
 19 38  1  0  0  0  0
 19 39  1  0  0  0  0
 20 21  2  0  0  0  0
 20 25  1  0  0  0  0
 21 22  1  0  0  0  0
 21 40  1  0  0  0  0
 22 23  2  0  0  0  0
 22 41  1  0  0  0  0
 23 24  1  0  0  0  0
 23 42  1  0  0  0  0
 24 25  2  0  0  0  0
 24 43  1  0  0  0  0
 25 44  1  0  0  0  0
M  END
> <compound_name>
MAT-POS-916a2c5a-4

> <provenance>
{"isomeric_smiles": "c1ccc(cc1)N2CCN(CC2)C(=O)c3cc(=O)[nH]c4c3cccc4", "inchi": "InChI=1S/C20H19N3O2/c24-19-14-17(16-8-4-5-9-18(16)21-19)20(25)23-12-10-22(11-13-23)15-6-2-1-3-7-15/h1-9,14H,10-13H2,(H,21,24)", "inchi_key": "NZVVEMCRCLJDCU-UHFFFAOYSA-N", "fixed_inchi": "InChI=1/C20H19N3O2/c24-19-14-17(16-8-4-5-9-18(16)21-19)20(25)23-12-10-22(11-13-23)15-6-2-1-3-7-15/h1-9,14H,10-13H2,(H,21,24)/f/h21H", "fixed_inchikey": "NZVVEMCRCLJDCU-PKSOQXRJNA-N"}

> <data_format>
sdf

$$$$
