LIG(A-306)
  -OEChem-06042511373D

 45 48  0     1  0  0  0  0  0999 V2000
   14.2157   -1.5190   21.1788 Cl  0  0  0  0  0  0  0  0  0  0  0  0
   12.9538   -0.7864   22.1322 C   0  0  0  0  0  0  0  0  0  0  0  0
   11.6492   -1.1839   21.9289 C   0  0  0  0  0  0  0  0  0  0  0  0
   13.2788    0.1894   23.0486 C   0  0  0  0  0  0  0  0  0  0  0  0
   12.2744    0.7717   23.8018 C   0  0  0  0  0  0  0  0  0  0  0  0
   10.9530    0.3622   23.6385 C   0  0  0  0  0  0  0  0  0  0  0  0
    9.9467    0.7967   24.5428 N   0  0  0  0  0  0  0  0  0  0  0  0
   10.1921    1.4798   25.6987 C   0  0  0  0  0  0  0  0  0  0  0  0
   10.6175    0.8986   26.6875 O   0  0  0  0  0  0  0  0  0  0  0  0
    9.9168    2.9539   25.6946 C   0  0  0  0  0  0  0  0  0  0  0  0
   10.6248   -0.5976   22.6671 C   0  0  0  0  0  0  0  0  0  0  0  0
    9.1871   -0.9792   22.3810 C   0  0  1  0  0  0  0  0  0  0  0  0
    8.3874   -0.9024   23.6893 C   0  0  0  0  0  0  0  0  0  0  0  0
    8.5311    0.4941   24.2726 C   0  0  0  0  0  0  0  0  0  0  0  0
    8.5827   -0.0721   21.3061 C   0  0  0  0  0  0  0  0  0  0  0  0
    9.0996    0.9963   20.9811 O   0  0  0  0  0  0  0  0  0  0  0  0
    7.4454   -0.5471   20.7486 N   0  0  0  0  0  0  0  0  0  0  0  0
    6.6839    0.0292   19.7163 C   0  0  0  0  0  0  0  0  0  0  0  0
    5.5689    0.8511   20.0674 C   0  0  0  0  0  0  0  0  0  0  0  0
    5.1474    1.0817   21.4019 C   0  0  0  0  0  0  0  0  0  0  0  0
    4.0953    1.9096   21.6738 C   0  0  0  0  0  0  0  0  0  0  0  0
    3.4098    2.5448   20.6454 C   0  0  0  0  0  0  0  0  0  0  0  0
    3.7754    2.3522   19.3439 C   0  0  0  0  0  0  0  0  0  0  0  0
    4.8604    1.5014   19.0189 C   0  0  0  0  0  0  0  0  0  0  0  0
    5.3030    1.2817   17.6934 C   0  0  0  0  0  0  0  0  0  0  0  0
    6.3371    0.5179   17.3684 N   0  0  0  0  0  0  0  0  0  0  0  0
    6.9955   -0.0884   18.3619 C   0  0  0  0  0  0  0  0  0  0  0  0
   11.4228   -1.9476   21.1995 H   0  0  0  0  0  0  0  0  0  0  0  0
   14.3061    0.4967   23.1779 H   0  0  0  0  0  0  0  0  0  0  0  0
   12.5154    1.5445   24.5168 H   0  0  0  0  0  0  0  0  0  0  0  0
   10.1557    3.3748   26.6824 H   0  0  0  0  0  0  0  0  0  0  0  0
   10.5384    3.4408   24.9287 H   0  0  0  0  0  0  0  0  0  0  0  0
    8.8542    3.1277   25.4693 H   0  0  0  0  0  0  0  0  0  0  0  0
    9.1623   -2.0171   22.0174 H   0  0  0  0  0  0  0  0  0  0  0  0
    7.3265   -1.1106   23.4865 H   0  0  0  0  0  0  0  0  0  0  0  0
    8.7763   -1.6429   24.4038 H   0  0  0  0  0  0  0  0  0  0  0  0
    8.1343    1.2283   23.5560 H   0  0  0  0  0  0  0  0  0  0  0  0
    7.9623    0.5544   25.2121 H   0  0  0  0  0  0  0  0  0  0  0  0
    7.1050   -1.4130   21.1149 H   0  0  0  0  0  0  0  0  0  0  0  0
    5.6659    0.5956   22.2151 H   0  0  0  0  0  0  0  0  0  0  0  0
    3.7934    2.0719   22.6980 H   0  0  0  0  0  0  0  0  0  0  0  0
    2.5805    3.1966   20.8775 H   0  0  0  0  0  0  0  0  0  0  0  0
    3.2328    2.8529   18.5556 H   0  0  0  0  0  0  0  0  0  0  0  0
    4.7636    1.7678   16.8940 H   0  0  0  0  0  0  0  0  0  0  0  0
    7.8322   -0.7170   18.0952 H   0  0  0  0  0  0  0  0  0  0  0  0
  1  2  1  0  0  0  0
  2  3  2  0  0  0  0
  2  4  1  0  0  0  0
  3 11  1  0  0  0  0
  3 28  1  0  0  0  0
  4  5  2  0  0  0  0
  4 29  1  0  0  0  0
  5  6  1  0  0  0  0
  5 30  1  0  0  0  0
  6  7  1  0  0  0  0
  6 11  2  0  0  0  0
  7  8  1  0  0  0  0
  7 14  1  0  0  0  0
  8  9  2  0  0  0  0
  8 10  1  0  0  0  0
 10 31  1  0  0  0  0
 10 32  1  0  0  0  0
 10 33  1  0  0  0  0
 11 12  1  0  0  0  0
 12 13  1  0  0  0  0
 12 15  1  0  0  0  0
 12 34  1  0  0  0  0
 13 14  1  0  0  0  0
 13 35  1  0  0  0  0
 13 36  1  0  0  0  0
 14 37  1  0  0  0  0
 14 38  1  0  0  0  0
 15 16  2  0  0  0  0
 15 17  1  0  0  0  0
 17 18  1  0  0  0  0
 17 39  1  0  0  0  0
 18 19  2  0  0  0  0
 18 27  1  0  0  0  0
 19 20  1  0  0  0  0
 19 24  1  0  0  0  0
 20 21  2  0  0  0  0
 20 40  1  0  0  0  0
 21 22  1  0  0  0  0
 21 41  1  0  0  0  0
 22 23  2  0  0  0  0
 22 42  1  0  0  0  0
 23 24  1  0  0  0  0
 23 43  1  0  0  0  0
 24 25  2  0  0  0  0
 25 26  1  0  0  0  0
 25 44  1  0  0  0  0
 26 27  2  0  0  0  0
 27 45  1  0  0  0  0
M  END
> <compound_name>
EDG-MED-5d232de5-3

> <provenance>
{"isomeric_smiles": "CC(=O)N1CC[C@H](c2c1ccc(c2)Cl)C(=O)Nc3cncc4c3cccc4", "inchi": "InChI=1S/C21H18ClN3O2/c1-13(26)25-9-8-17(18-10-15(22)6-7-20(18)25)21(27)24-19-12-23-11-14-4-2-3-5-16(14)19/h2-7,10-12,17H,8-9H2,1H3,(H,24,27)/t17-/m1/s1", "inchi_key": "OYAZCEPXBNBUAT-QGZVFWFLSA-N", "fixed_inchi": "InChI=1/C21H18ClN3O2/c1-13(26)25-9-8-17(18-10-15(22)6-7-20(18)25)21(27)24-19-12-23-11-14-4-2-3-5-16(14)19/h2-7,10-12,17H,8-9H2,1H3,(H,24,27)/t17-/m1/s1/f/h24H", "fixed_inchikey": "OYAZCEPXBNBUAT-UWJLXQJCNA-N"}

> <data_format>
sdf

$$$$
