LIG(A-306)
  -OEChem-06042511423D

 58 63  0     1  0  0  0  0  0999 V2000
    8.9421    7.2113   22.5045 N   0  0  0  0  0  0  0  0  0  0  0  0
    8.3880    6.2220   22.5997 C   0  0  0  0  0  0  0  0  0  0  0  0
    7.6223    4.9712   22.6926 C   0  0  0  0  0  0  0  0  0  0  0  0
    6.4009    4.8842   21.8124 C   0  0  0  0  0  0  0  0  0  0  0  0
    6.2317    5.0833   23.2665 C   0  0  0  0  0  0  0  0  0  0  0  0
    8.4517    3.7142   22.9332 C   0  0  0  0  0  0  0  0  0  0  0  0
    8.6466    3.0625   24.5809 S   0  0  0  0  0  0  0  0  0  0  0  0
    9.4478    3.9750   25.3323 O   0  0  0  0  0  0  0  0  0  0  0  0
    7.3609    2.6908   25.0833 O   0  0  0  0  0  0  0  0  0  0  0  0
    9.5056    1.6925   24.4118 N   0  0  3  0  0  0  0  0  0  0  0  0
   10.9266    1.6486   24.7743 C   0  0  0  0  0  0  0  0  0  0  0  0
    8.9157    0.3547   24.2253 C   0  0  0  0  0  0  0  0  0  0  0  0
    9.5830   -0.3216   22.9997 C   0  0  2  0  0  0  0  0  0  0  0  0
   11.1093   -0.1981   23.0270 C   0  0  0  0  0  0  0  0  0  0  0  0
   11.7037    0.8400   23.7611 C   0  0  0  0  0  0  0  0  0  0  0  0
   13.0592    1.0999   23.5911 C   0  0  0  0  0  0  0  0  0  0  0  0
   13.8284    0.3386   22.7331 C   0  0  0  0  0  0  0  0  0  0  0  0
   11.9013   -1.0097   22.2128 C   0  0  0  0  0  0  0  0  0  0  0  0
   13.2429   -0.7099   22.0670 C   0  0  0  0  0  0  0  0  0  0  0  0
   14.1987   -1.6444   20.9531 Cl  0  0  0  0  0  0  0  0  0  0  0  0
    9.0412    0.3868   21.7564 C   0  0  0  0  0  0  0  0  0  0  0  0
    9.5053    1.3863   21.2423 O   0  0  0  0  0  0  0  0  0  0  0  0
    7.9476   -0.3007   21.3192 N   0  0  0  0  0  0  0  0  0  0  0  0
    7.7381   -1.5560   22.0579 C   0  0  0  0  0  0  0  0  0  0  0  0
    9.0568   -1.7595   22.8006 C   0  0  0  0  0  0  0  0  0  0  0  0
    7.0833    0.0995   20.2453 C   0  0  0  0  0  0  0  0  0  0  0  0
    5.9331    0.9270   20.4477 C   0  0  0  0  0  0  0  0  0  0  0  0
    5.4292    1.2907   21.7237 C   0  0  0  0  0  0  0  0  0  0  0  0
    4.3159    2.0715   21.8438 C   0  0  0  0  0  0  0  0  0  0  0  0
    3.6626    2.5536   20.7164 C   0  0  0  0  0  0  0  0  0  0  0  0
    4.1037    2.2279   19.4666 C   0  0  0  0  0  0  0  0  0  0  0  0
    5.2368    1.3943   19.2952 C   0  0  0  0  0  0  0  0  0  0  0  0
    5.7046    0.9776   18.0260 C   0  0  0  0  0  0  0  0  0  0  0  0
    6.7439    0.1773   17.8418 N   0  0  0  0  0  0  0  0  0  0  0  0
    7.4012   -0.2386   18.9335 C   0  0  0  0  0  0  0  0  0  0  0  0
    6.1676    5.7033   21.1163 H   0  0  0  0  0  0  0  0  0  0  0  0
    6.1224    3.9235   21.3547 H   0  0  0  0  0  0  0  0  0  0  0  0
    5.8729    6.0502   23.6493 H   0  0  0  0  0  0  0  0  0  0  0  0
    5.8279    4.2704   23.8877 H   0  0  0  0  0  0  0  0  0  0  0  0
    7.9958    2.9153   22.3298 H   0  0  0  0  0  0  0  0  0  0  0  0
    9.4630    3.9266   22.5562 H   0  0  0  0  0  0  0  0  0  0  0  0
   11.3252    2.6734   24.8029 H   0  0  0  0  0  0  0  0  0  0  0  0
   11.0336    1.1858   25.7665 H   0  0  0  0  0  0  0  0  0  0  0  0
    9.0907   -0.2547   25.1242 H   0  0  0  0  0  0  0  0  0  0  0  0
    7.8337    0.4492   24.0513 H   0  0  0  0  0  0  0  0  0  0  0  0
   13.5178    1.9100   24.1386 H   0  0  0  0  0  0  0  0  0  0  0  0
   14.8745    0.5643   22.5883 H   0  0  0  0  0  0  0  0  0  0  0  0
   11.4719   -1.8601   21.7039 H   0  0  0  0  0  0  0  0  0  0  0  0
    6.9002   -1.4609   22.7642 H   0  0  0  0  0  0  0  0  0  0  0  0
    7.5432   -2.3901   21.3678 H   0  0  0  0  0  0  0  0  0  0  0  0
    8.8907   -2.2551   23.7685 H   0  0  0  0  0  0  0  0  0  0  0  0
    9.7590   -2.3556   22.1993 H   0  0  0  0  0  0  0  0  0  0  0  0
    5.9342    0.9444   22.6132 H   0  0  0  0  0  0  0  0  0  0  0  0
    3.9389    2.3171   22.8256 H   0  0  0  0  0  0  0  0  0  0  0  0
    2.7985    3.1915   20.8299 H   0  0  0  0  0  0  0  0  0  0  0  0
    3.5841    2.6090   18.5999 H   0  0  0  0  0  0  0  0  0  0  0  0
    5.1807    1.3351   17.1519 H   0  0  0  0  0  0  0  0  0  0  0  0
    8.2487   -0.8908   18.7823 H   0  0  0  0  0  0  0  0  0  0  0  0
  1  2  3  0  0  0  0
  2  3  1  0  0  0  0
  3  4  1  0  0  0  0
  3  5  1  0  0  0  0
  3  6  1  0  0  0  0
  4  5  1  0  0  0  0
  4 36  1  0  0  0  0
  4 37  1  0  0  0  0
  5 38  1  0  0  0  0
  5 39  1  0  0  0  0
  6  7  1  0  0  0  0
  6 40  1  0  0  0  0
  6 41  1  0  0  0  0
  7  8  2  0  0  0  0
  7  9  2  0  0  0  0
  7 10  1  0  0  0  0
 10 11  1  0  0  0  0
 10 12  1  0  0  0  0
 11 15  1  0  0  0  0
 11 42  1  0  0  0  0
 11 43  1  0  0  0  0
 12 13  1  0  0  0  0
 12 44  1  0  0  0  0
 12 45  1  0  0  0  0
 13 14  1  0  0  0  0
 13 21  1  0  0  0  0
 13 25  1  0  0  0  0
 14 15  2  0  0  0  0
 14 18  1  0  0  0  0
 15 16  1  0  0  0  0
 16 17  2  0  0  0  0
 16 46  1  0  0  0  0
 17 19  1  0  0  0  0
 17 47  1  0  0  0  0
 18 19  2  0  0  0  0
 18 48  1  0  0  0  0
 19 20  1  0  0  0  0
 21 22  2  0  0  0  0
 21 23  1  0  0  0  0
 23 24  1  0  0  0  0
 23 26  1  0  0  0  0
 24 25  1  0  0  0  0
 24 49  1  0  0  0  0
 24 50  1  0  0  0  0
 25 51  1  0  0  0  0
 25 52  1  0  0  0  0
 26 27  2  0  0  0  0
 26 35  1  0  0  0  0
 27 28  1  0  0  0  0
 27 32  1  0  0  0  0
 28 29  2  0  0  0  0
 28 53  1  0  0  0  0
 29 30  1  0  0  0  0
 29 54  1  0  0  0  0
 30 31  2  0  0  0  0
 30 55  1  0  0  0  0
 31 32  1  0  0  0  0
 31 56  1  0  0  0  0
 32 33  2  0  0  0  0
 33 34  1  0  0  0  0
 33 57  1  0  0  0  0
 34 35  2  0  0  0  0
 35 58  1  0  0  0  0
M  END
> <compound_name>
EDJ-MED-8bb691af-6

> <provenance>
{"isomeric_smiles": "c1ccc2c(c1)cncc2N3CC[C@@]4(C3=O)CN(Cc5c4cc(cc5)Cl)S(=O)(=O)CC6(CC6)C#N", "inchi": "InChI=1S/C26H23ClN4O3S/c27-20-6-5-19-14-30(35(33,34)17-25(15-28)7-8-25)16-26(22(19)11-20)9-10-31(24(26)32)23-13-29-12-18-3-1-2-4-21(18)23/h1-6,11-13H,7-10,14,16-17H2/t26-/m1/s1", "inchi_key": "ZFIJDHJQBMZSSD-AREMUKBSSA-N", "fixed_inchi": "InChI=1/C26H23ClN4O3S/c27-20-6-5-19-14-30(35(33,34)17-25(15-28)7-8-25)16-26(22(19)11-20)9-10-31(24(26)32)23-13-29-12-18-3-1-2-4-21(18)23/h1-6,11-13H,7-10,14,16-17H2/t26-/m1/s1", "fixed_inchikey": "ZFIJDHJQBMZSSD-AREMUKBSNA-N"}

> <data_format>
sdf

$$$$
