LIG(A-305)
  -OEChem-06042511333D

 39 42  0     1  0  0  0  0  0999 V2000
    9.1599    0.9149   21.0795 O   0  0  0  0  0  0  0  0  0  0  0  0
    8.6810   -0.1752   21.3744 C   0  0  0  0  0  0  0  0  0  0  0  0
    9.1669   -0.9791   22.5825 C   0  0  2  0  0  0  0  0  0  0  0  0
    8.3636   -0.5563   23.8223 C   0  0  0  0  0  0  0  0  0  0  0  0
    8.8793    0.7608   24.3444 C   0  0  0  0  0  0  0  0  0  0  0  0
   10.2792    0.6861   24.6987 O   0  0  0  0  0  0  0  0  0  0  0  0
   10.6508   -0.7268   22.7518 C   0  0  0  0  0  0  0  0  0  0  0  0
   11.1095    0.1273   23.7589 C   0  0  0  0  0  0  0  0  0  0  0  0
   12.4564    0.4315   23.8921 C   0  0  0  0  0  0  0  0  0  0  0  0
   13.3737   -0.1323   23.0243 C   0  0  0  0  0  0  0  0  0  0  0  0
   11.5921   -1.3057   21.9040 C   0  0  0  0  0  0  0  0  0  0  0  0
   12.9310   -1.0054   22.0552 C   0  0  0  0  0  0  0  0  0  0  0  0
   14.0924   -1.7732   21.0104 Cl  0  0  0  0  0  0  0  0  0  0  0  0
    7.7093   -0.7704   20.6632 N   0  0  0  0  0  0  0  0  0  0  0  0
    6.7873   -0.2296   19.7580 C   0  0  0  0  0  0  0  0  0  0  0  0
    5.6681    0.5262   20.2308 C   0  0  0  0  0  0  0  0  0  0  0  0
    5.2518    0.5602   21.5897 C   0  0  0  0  0  0  0  0  0  0  0  0
    4.1426    1.2619   21.9685 C   0  0  0  0  0  0  0  0  0  0  0  0
    3.3947    1.9628   21.0334 C   0  0  0  0  0  0  0  0  0  0  0  0
    3.7569    1.9699   19.7174 C   0  0  0  0  0  0  0  0  0  0  0  0
    4.9021    1.2571   19.2807 C   0  0  0  0  0  0  0  0  0  0  0  0
    5.3224    1.2232   17.9287 C   0  0  0  0  0  0  0  0  0  0  0  0
    6.3846    0.5534   17.4969 N   0  0  0  0  0  0  0  0  0  0  0  0
    7.0746   -0.1605   18.3951 C   0  0  0  0  0  0  0  0  0  0  0  0
    8.9989   -2.0497   22.3941 H   0  0  0  0  0  0  0  0  0  0  0  0
    7.3028   -0.4507   23.5509 H   0  0  0  0  0  0  0  0  0  0  0  0
    8.4676   -1.3238   24.6034 H   0  0  0  0  0  0  0  0  0  0  0  0
    8.7491    1.5278   23.5668 H   0  0  0  0  0  0  0  0  0  0  0  0
    8.3005    1.0414   25.2368 H   0  0  0  0  0  0  0  0  0  0  0  0
   12.7867    1.1049   24.6692 H   0  0  0  0  0  0  0  0  0  0  0  0
   14.4233    0.1088   23.1053 H   0  0  0  0  0  0  0  0  0  0  0  0
   11.2750   -1.9883   21.1294 H   0  0  0  0  0  0  0  0  0  0  0  0
    7.6316   -1.7576   20.8023 H   0  0  0  0  0  0  0  0  0  0  0  0
    5.8211    0.0230   22.3339 H   0  0  0  0  0  0  0  0  0  0  0  0
    3.8448    1.2713   23.0066 H   0  0  0  0  0  0  0  0  0  0  0  0
    2.5176    2.5078   21.3497 H   0  0  0  0  0  0  0  0  0  0  0  0
    3.1661    2.5233   19.0026 H   0  0  0  0  0  0  0  0  0  0  0  0
    4.7433    1.7762   17.2041 H   0  0  0  0  0  0  0  0  0  0  0  0
    7.9205   -0.7278   18.0357 H   0  0  0  0  0  0  0  0  0  0  0  0
  1  2  2  0  0  0  0
  2  3  1  0  0  0  0
  2 14  1  0  0  0  0
  3  4  1  0  0  0  0
  3  7  1  0  0  0  0
  3 25  1  0  0  0  0
  4  5  1  0  0  0  0
  4 26  1  0  0  0  0
  4 27  1  0  0  0  0
  5  6  1  0  0  0  0
  5 28  1  0  0  0  0
  5 29  1  0  0  0  0
  6  8  1  0  0  0  0
  7  8  2  0  0  0  0
  7 11  1  0  0  0  0
  8  9  1  0  0  0  0
  9 10  2  0  0  0  0
  9 30  1  0  0  0  0
 10 12  1  0  0  0  0
 10 31  1  0  0  0  0
 11 12  2  0  0  0  0
 11 32  1  0  0  0  0
 12 13  1  0  0  0  0
 14 15  1  0  0  0  0
 14 33  1  0  0  0  0
 15 16  2  0  0  0  0
 15 24  1  0  0  0  0
 16 17  1  0  0  0  0
 16 21  1  0  0  0  0
 17 18  2  0  0  0  0
 17 34  1  0  0  0  0
 18 19  1  0  0  0  0
 18 35  1  0  0  0  0
 19 20  2  0  0  0  0
 19 36  1  0  0  0  0
 20 21  1  0  0  0  0
 20 37  1  0  0  0  0
 21 22  2  0  0  0  0
 22 23  1  0  0  0  0
 22 38  1  0  0  0  0
 23 24  2  0  0  0  0
 24 39  1  0  0  0  0
M  END
> <compound_name>
VLA-UCB-1dbca3b4-15

> <provenance>
{"isomeric_smiles": "c1ccc2c(c1)cncc2NC(=O)[C@@H]3CCOc4c3cc(cc4)Cl", "inchi": "InChI=1S/C19H15ClN2O2/c20-13-5-6-18-16(9-13)15(7-8-24-18)19(23)22-17-11-21-10-12-3-1-2-4-14(12)17/h1-6,9-11,15H,7-8H2,(H,22,23)/t15-/m1/s1", "inchi_key": "QRUNNMAOPKEFMJ-OAHLLOKOSA-N", "fixed_inchi": "InChI=1/C19H15ClN2O2/c20-13-5-6-18-16(9-13)15(7-8-24-18)19(23)22-17-11-21-10-12-3-1-2-4-14(12)17/h1-6,9-11,15H,7-8H2,(H,22,23)/t15-/m1/s1/f/h22H", "fixed_inchikey": "QRUNNMAOPKEFMJ-RYSKXMCPNA-N"}

> <data_format>
sdf

$$$$
