LIG(A-305)
  -OEChem-06042511313D

 29 30  0     0  0  0  0  0  0999 V2000
   13.6462   -1.8294   21.4060 Cl  0  0  0  0  0  0  0  0  0  0  0  0
   12.4483   -0.9543   22.3181 C   0  0  0  0  0  0  0  0  0  0  0  0
   12.8575    0.0166   23.2041 C   0  0  0  0  0  0  0  0  0  0  0  0
   11.8995    0.6746   23.9552 C   0  0  0  0  0  0  0  0  0  0  0  0
   10.5555    0.3747   23.7923 C   0  0  0  0  0  0  0  0  0  0  0  0
   11.1113   -1.2653   22.1432 C   0  0  0  0  0  0  0  0  0  0  0  0
   10.1444   -0.5832   22.8773 C   0  0  0  0  0  0  0  0  0  0  0  0
    8.6754   -0.7991   22.5933 C   0  0  0  0  0  0  0  0  0  0  0  0
    8.2724   -0.0191   21.3574 C   0  0  0  0  0  0  0  0  0  0  0  0
    8.8594    1.0049   21.0134 O   0  0  0  0  0  0  0  0  0  0  0  0
    7.1963   -0.5220   20.6794 N   0  0  0  0  0  0  0  0  0  0  0  0
    6.7293    0.0221   19.4824 C   0  0  0  0  0  0  0  0  0  0  0  0
    5.7363    0.9762   19.3715 N   0  0  0  0  0  0  0  0  0  0  0  0
    5.0564    1.6962   20.4466 C   0  0  0  0  0  0  0  0  0  0  0  0
    7.1512   -0.2639   18.2254 C   0  0  0  0  0  0  0  0  0  0  0  0
    6.4342    0.4812   17.3165 N   0  0  0  0  0  0  0  0  0  0  0  0
    5.5993    1.1962   18.0425 C   0  0  0  0  0  0  0  0  0  0  0  0
   13.9043    0.2597   23.3108 H   0  0  0  0  0  0  0  0  0  0  0  0
   12.1999    1.4251   24.6714 H   0  0  0  0  0  0  0  0  0  0  0  0
    9.8184    0.8945   24.3863 H   0  0  0  0  0  0  0  0  0  0  0  0
   10.8194   -2.0325   21.4414 H   0  0  0  0  0  0  0  0  0  0  0  0
    8.4891   -1.8703   22.4262 H   0  0  0  0  0  0  0  0  0  0  0  0
    8.0824   -0.4536   23.4530 H   0  0  0  0  0  0  0  0  0  0  0  0
    6.7223   -1.3163   21.0591 H   0  0  0  0  0  0  0  0  0  0  0  0
    5.4546    1.3673   21.4178 H   0  0  0  0  0  0  0  0  0  0  0  0
    5.2253    2.7767   20.3281 H   0  0  0  0  0  0  0  0  0  0  0  0
    3.9775    1.4867   20.4029 H   0  0  0  0  0  0  0  0  0  0  0  0
    7.9306   -0.9685   17.9758 H   0  0  0  0  0  0  0  0  0  0  0  0
    4.8815    1.8851   17.6222 H   0  0  0  0  0  0  0  0  0  0  0  0
  1  2  1  0  0  0  0
  2  3  2  0  0  0  0
  2  6  1  0  0  0  0
  3  4  1  0  0  0  0
  3 18  1  0  0  0  0
  4  5  2  0  0  0  0
  4 19  1  0  0  0  0
  5  7  1  0  0  0  0
  5 20  1  0  0  0  0
  6  7  2  0  0  0  0
  6 21  1  0  0  0  0
  7  8  1  0  0  0  0
  8  9  1  0  0  0  0
  8 22  1  0  0  0  0
  8 23  1  0  0  0  0
  9 10  2  0  0  0  0
  9 11  1  0  0  0  0
 11 12  1  0  0  0  0
 11 24  1  0  0  0  0
 12 13  1  0  0  0  0
 12 15  2  0  0  0  0
 13 14  1  0  0  0  0
 13 17  1  0  0  0  0
 14 25  1  0  0  0  0
 14 26  1  0  0  0  0
 14 27  1  0  0  0  0
 15 16  1  0  0  0  0
 15 28  1  0  0  0  0
 16 17  2  0  0  0  0
 17 29  1  0  0  0  0
M  END
> <compound_name>
PET-UNK-8df914d1-4

> <provenance>
{"isomeric_smiles": "Cn1cncc1NC(=O)Cc2cccc(c2)Cl", "inchi": "InChI=1S/C12H12ClN3O/c1-16-8-14-7-11(16)15-12(17)6-9-3-2-4-10(13)5-9/h2-5,7-8H,6H2,1H3,(H,15,17)", "inchi_key": "DVAZCJFDVZFHLG-UHFFFAOYSA-N", "fixed_inchi": "InChI=1/C12H12ClN3O/c1-16-8-14-7-11(16)15-12(17)6-9-3-2-4-10(13)5-9/h2-5,7-8H,6H2,1H3,(H,15,17)/f/h15H", "fixed_inchikey": "DVAZCJFDVZFHLG-YAQRNVERNA-N"}

> <data_format>
sdf

$$$$
