LIG(A-305)
  -OEChem-06042511343D

 50 53  0     0  0  0  0  0  0999 V2000
    9.3870    1.3546   21.0897 O   0  0  0  0  0  0  0  0  0  0  0  0
    9.1149    0.2896   21.6317 C   0  0  0  0  0  0  0  0  0  0  0  0
    8.1328   -0.6733   20.9917 C   0  0  0  0  0  0  0  0  0  0  0  0
    7.1978    0.0008   20.0158 C   0  0  0  0  0  0  0  0  0  0  0  0
    7.4747    0.0159   18.6578 C   0  0  0  0  0  0  0  0  0  0  0  0
    6.6537    0.5299   17.7329 N   0  0  0  0  0  0  0  0  0  0  0  0
    5.4998    1.0590   18.1610 C   0  0  0  0  0  0  0  0  0  0  0  0
    5.1339    1.1050   19.4920 C   0  0  0  0  0  0  0  0  0  0  0  0
    6.0009    0.5699   20.4259 C   0  0  0  0  0  0  0  0  0  0  0  0
    9.6990   -0.0924   22.8036 N   0  0  0  0  0  0  0  0  0  0  0  0
   10.9081    0.6025   23.2296 C   0  0  0  0  0  0  0  0  0  0  0  0
   12.0580   -0.3366   23.4385 C   0  0  0  0  0  0  0  0  0  0  0  0
   12.9079   -0.9397   22.4614 C   0  0  0  0  0  0  0  0  0  0  0  0
   13.7109   -1.7918   23.1593 C   0  0  0  0  0  0  0  0  0  0  0  0
   12.3411   -0.7857   24.6714 N   0  0  0  0  0  0  0  0  0  0  0  0
   13.3480   -1.6808   24.4833 N   0  0  0  0  0  0  0  0  0  0  0  0
   13.8890   -2.3998   25.6293 C   0  0  0  0  0  0  0  0  0  0  0  0
    9.2030   -1.1524   23.6266 C   0  0  0  0  0  0  0  0  0  0  0  0
    9.5929   -2.4744   23.3986 C   0  0  0  0  0  0  0  0  0  0  0  0
    9.2268   -3.4704   24.2866 C   0  0  0  0  0  0  0  0  0  0  0  0
    8.4670   -3.1814   25.4206 C   0  0  0  0  0  0  0  0  0  0  0  0
    8.0521   -1.8634   25.6167 C   0  0  0  0  0  0  0  0  0  0  0  0
    8.4101   -0.8614   24.7357 C   0  0  0  0  0  0  0  0  0  0  0  0
    8.1639   -4.2314   26.4236 C   0  0  0  0  0  0  0  0  0  0  0  0
    9.1419   -5.1305   26.6515 N   0  0  0  0  0  0  0  0  0  0  0  0
    8.9399   -6.0345   27.6275 C   0  0  0  0  0  0  0  0  0  0  0  0
    7.7929   -6.0905   28.3986 C   0  0  0  0  0  0  0  0  0  0  0  0
    6.7950   -5.1744   28.1437 C   0  0  0  0  0  0  0  0  0  0  0  0
    6.9700   -4.2334   27.1417 C   0  0  0  0  0  0  0  0  0  0  0  0
    8.7002   -1.4482   20.4556 H   0  0  0  0  0  0  0  0  0  0  0  0
    7.5328   -1.1416   21.7859 H   0  0  0  0  0  0  0  0  0  0  0  0
    8.4087   -0.4127   18.3255 H   0  0  0  0  0  0  0  0  0  0  0  0
    4.8213    1.4704   17.4282 H   0  0  0  0  0  0  0  0  0  0  0  0
    4.1960    1.5470   19.7947 H   0  0  0  0  0  0  0  0  0  0  0  0
    5.7466    0.5948   21.4752 H   0  0  0  0  0  0  0  0  0  0  0  0
   11.1855    1.3359   22.4581 H   0  0  0  0  0  0  0  0  0  0  0  0
   10.7016    1.1252   24.1751 H   0  0  0  0  0  0  0  0  0  0  0  0
   12.9131   -0.7589   21.3966 H   0  0  0  0  0  0  0  0  0  0  0  0
   14.4818   -2.4298   22.7531 H   0  0  0  0  0  0  0  0  0  0  0  0
   14.6760   -3.0901   25.2914 H   0  0  0  0  0  0  0  0  0  0  0  0
   14.3144   -1.6813   26.3454 H   0  0  0  0  0  0  0  0  0  0  0  0
   13.0851   -2.9710   26.1165 H   0  0  0  0  0  0  0  0  0  0  0  0
   10.1815   -2.7197   22.5269 H   0  0  0  0  0  0  0  0  0  0  0  0
    9.5345   -4.4886   24.0988 H   0  0  0  0  0  0  0  0  0  0  0  0
    7.4397   -1.6224   26.4731 H   0  0  0  0  0  0  0  0  0  0  0  0
    8.0746    0.1508   24.9068 H   0  0  0  0  0  0  0  0  0  0  0  0
    9.7182   -6.7582   27.8199 H   0  0  0  0  0  0  0  0  0  0  0  0
    7.6825   -6.8303   29.1776 H   0  0  0  0  0  0  0  0  0  0  0  0
    5.8825   -5.1899   28.7213 H   0  0  0  0  0  0  0  0  0  0  0  0
    6.1948   -3.5144   26.9214 H   0  0  0  0  0  0  0  0  0  0  0  0
  1  2  2  0  0  0  0
  2  3  1  0  0  0  0
  2 10  1  0  0  0  0
  3  4  1  0  0  0  0
  3 30  1  0  0  0  0
  3 31  1  0  0  0  0
  4  5  2  0  0  0  0
  4  9  1  0  0  0  0
  5  6  1  0  0  0  0
  5 32  1  0  0  0  0
  6  7  2  0  0  0  0
  7  8  1  0  0  0  0
  7 33  1  0  0  0  0
  8  9  2  0  0  0  0
  8 34  1  0  0  0  0
  9 35  1  0  0  0  0
 10 11  1  0  0  0  0
 10 18  1  0  0  0  0
 11 12  1  0  0  0  0
 11 36  1  0  0  0  0
 11 37  1  0  0  0  0
 12 13  1  0  0  0  0
 12 15  2  0  0  0  0
 13 14  2  0  0  0  0
 13 38  1  0  0  0  0
 14 16  1  0  0  0  0
 14 39  1  0  0  0  0
 15 16  1  0  0  0  0
 16 17  1  0  0  0  0
 17 40  1  0  0  0  0
 17 41  1  0  0  0  0
 17 42  1  0  0  0  0
 18 19  2  0  0  0  0
 18 23  1  0  0  0  0
 19 20  1  0  0  0  0
 19 43  1  0  0  0  0
 20 21  2  0  0  0  0
 20 44  1  0  0  0  0
 21 22  1  0  0  0  0
 21 24  1  0  0  0  0
 22 23  2  0  0  0  0
 22 45  1  0  0  0  0
 23 46  1  0  0  0  0
 24 25  2  0  0  0  0
 24 29  1  0  0  0  0
 25 26  1  0  0  0  0
 26 27  2  0  0  0  0
 26 47  1  0  0  0  0
 27 28  1  0  0  0  0
 27 48  1  0  0  0  0
 28 29  2  0  0  0  0
 28 49  1  0  0  0  0
 29 50  1  0  0  0  0
M  END
> <compound_name>
ALP-POS-c0c213c9-14

> <provenance>
{"isomeric_smiles": "Cn1ccc(n1)CN(c2ccc(cc2)c3ccccn3)C(=O)Cc4cccnc4", "inchi": "InChI=1S/C23H21N5O/c1-27-14-11-20(26-27)17-28(23(29)15-18-5-4-12-24-16-18)21-9-7-19(8-10-21)22-6-2-3-13-25-22/h2-14,16H,15,17H2,1H3", "inchi_key": "SMTCZNNYBUKPMF-UHFFFAOYSA-N", "fixed_inchi": "InChI=1/C23H21N5O/c1-27-14-11-20(26-27)17-28(23(29)15-18-5-4-12-24-16-18)21-9-7-19(8-10-21)22-6-2-3-13-25-22/h2-14,16H,15,17H2,1H3", "fixed_inchikey": "SMTCZNNYBUKPMF-UHFFFAOYNA-N"}

> <data_format>
sdf

$$$$
