LIG(A-306)
  -OEChem-06042511403D

 63 67  0     1  0  0  0  0  0999 V2000
    8.9124    1.0273   21.0316 O   0  0  0  0  0  0  0  0  0  0  0  0
    8.4135   -0.0588   21.3387 C   0  0  0  0  0  0  0  0  0  0  0  0
    7.2714   -0.5478   20.7979 N   0  0  0  0  0  0  0  0  0  0  0  0
    6.4892    0.0291   19.7811 C   0  0  0  0  0  0  0  0  0  0  0  0
    5.3812    0.8611   20.1433 C   0  0  0  0  0  0  0  0  0  0  0  0
    4.9205    1.0300   21.4754 C   0  0  0  0  0  0  0  0  0  0  0  0
    3.8885    1.8809   21.7607 C   0  0  0  0  0  0  0  0  0  0  0  0
    3.2622    2.5979   20.7478 C   0  0  0  0  0  0  0  0  0  0  0  0
    3.6579    2.4580   19.4478 C   0  0  0  0  0  0  0  0  0  0  0  0
    4.7219    1.5840   19.1095 C   0  0  0  0  0  0  0  0  0  0  0  0
    5.1807    1.4011   17.7834 C   0  0  0  0  0  0  0  0  0  0  0  0
    6.1916    0.6152   17.4452 N   0  0  0  0  0  0  0  0  0  0  0  0
    6.8209   -0.0448   18.4260 C   0  0  0  0  0  0  0  0  0  0  0  0
    9.0688   -0.9948   22.3835 C   0  0  1  0  0  0  0  0  0  0  0  0
   10.4898   -0.5857   22.7542 C   0  0  0  0  0  0  0  0  0  0  0  0
   10.7439    0.5353   23.5352 C   0  0  0  0  0  0  0  0  0  0  0  0
   12.0450    0.9144   23.8290 C   0  0  0  0  0  0  0  0  0  0  0  0
   13.1139    0.1745   23.3467 C   0  0  0  0  0  0  0  0  0  0  0  0
   11.5618   -1.3356   22.2810 C   0  0  0  0  0  0  0  0  0  0  0  0
   12.8528   -0.9375   22.5697 C   0  0  0  0  0  0  0  0  0  0  0  0
   14.1797   -1.8284   21.8874 Cl  0  0  0  0  0  0  0  0  0  0  0  0
    8.2500   -1.3359   23.5377 N   0  0  0  0  0  0  0  0  0  0  0  0
    7.4811   -0.4539   24.1899 C   0  0  0  0  0  0  0  0  0  0  0  0
    7.5190    0.7621   23.9989 O   0  0  0  0  0  0  0  0  0  0  0  0
    6.5504   -1.0290   25.2480 C   0  0  1  0  0  0  0  0  0  0  0  0
    6.5475   -2.4720   25.2130 O   0  0  0  0  0  0  0  0  0  0  0  0
    7.2707   -3.0370   26.3348 C   0  0  2  0  0  0  0  0  0  0  0  0
    7.9338   -1.8380   27.0067 C   0  0  0  0  0  0  0  0  0  0  0  0
    6.9906   -0.6791   26.6540 C   0  0  0  0  0  0  0  0  0  0  0  0
    8.2827   -4.0889   25.8586 C   0  0  0  0  0  0  0  0  0  0  0  0
    8.7075   -4.0669   24.7145 O   0  0  0  0  0  0  0  0  0  0  0  0
    8.6950   -5.0159   26.7435 N   0  0  0  0  0  0  0  0  0  0  0  0
    8.0803   -5.3210   28.0376 C   0  0  0  0  0  0  0  0  0  0  0  0
    9.2425   -5.8100   28.8573 C   0  0  0  0  0  0  0  0  0  0  0  0
   10.1003   -6.5469   27.8431 C   0  0  0  0  0  0  0  0  0  0  0  0
    9.8660   -5.8649   26.5012 C   0  0  0  0  0  0  0  0  0  0  0  0
    6.9471   -1.4200   21.1640 H   0  0  0  0  0  0  0  0  0  0  0  0
    5.3919    0.4784   22.2754 H   0  0  0  0  0  0  0  0  0  0  0  0
    3.5572    1.9968   22.7821 H   0  0  0  0  0  0  0  0  0  0  0  0
    2.4546    3.2724   20.9911 H   0  0  0  0  0  0  0  0  0  0  0  0
    3.1565    3.0172   18.6718 H   0  0  0  0  0  0  0  0  0  0  0  0
    4.6731    1.9376   16.9954 H   0  0  0  0  0  0  0  0  0  0  0  0
    7.6473   -0.6823   18.1484 H   0  0  0  0  0  0  0  0  0  0  0  0
    9.1971   -1.9436   21.8421 H   0  0  0  0  0  0  0  0  0  0  0  0
    9.9188    1.1177   23.9177 H   0  0  0  0  0  0  0  0  0  0  0  0
   12.2264    1.7893   24.4356 H   0  0  0  0  0  0  0  0  0  0  0  0
   14.1299    0.4616   23.5739 H   0  0  0  0  0  0  0  0  0  0  0  0
   11.3858   -2.2233   21.6916 H   0  0  0  0  0  0  0  0  0  0  0  0
    8.2623   -2.2818   23.8619 H   0  0  0  0  0  0  0  0  0  0  0  0
    5.5338   -0.6435   25.0810 H   0  0  0  0  0  0  0  0  0  0  0  0
    6.5706   -3.5061   27.0417 H   0  0  0  0  0  0  0  0  0  0  0  0
    7.9960   -1.9795   28.0958 H   0  0  0  0  0  0  0  0  0  0  0  0
    8.9416   -1.6649   26.6013 H   0  0  0  0  0  0  0  0  0  0  0  0
    7.5202    0.2849   26.6761 H   0  0  0  0  0  0  0  0  0  0  0  0
    6.1326   -0.6418   27.3412 H   0  0  0  0  0  0  0  0  0  0  0  0
    7.6321   -4.4213   28.4843 H   0  0  0  0  0  0  0  0  0  0  0  0
    7.3119   -6.1016   27.9361 H   0  0  0  0  0  0  0  0  0  0  0  0
    9.7933   -4.9678   29.3015 H   0  0  0  0  0  0  0  0  0  0  0  0
    8.9046   -6.4883   29.6546 H   0  0  0  0  0  0  0  0  0  0  0  0
   11.1620   -6.4798   28.1232 H   0  0  0  0  0  0  0  0  0  0  0  0
    9.8014   -7.6041   27.7893 H   0  0  0  0  0  0  0  0  0  0  0  0
    9.6576   -6.6059   25.7154 H   0  0  0  0  0  0  0  0  0  0  0  0
   10.7370   -5.2586   26.2117 H   0  0  0  0  0  0  0  0  0  0  0  0
  1  2  2  0  0  0  0
  2  3  1  0  0  0  0
  2 14  1  0  0  0  0
  3  4  1  0  0  0  0
  3 37  1  0  0  0  0
  4  5  2  0  0  0  0
  4 13  1  0  0  0  0
  5  6  1  0  0  0  0
  5 10  1  0  0  0  0
  6  7  2  0  0  0  0
  6 38  1  0  0  0  0
  7  8  1  0  0  0  0
  7 39  1  0  0  0  0
  8  9  2  0  0  0  0
  8 40  1  0  0  0  0
  9 10  1  0  0  0  0
  9 41  1  0  0  0  0
 10 11  2  0  0  0  0
 11 12  1  0  0  0  0
 11 42  1  0  0  0  0
 12 13  2  0  0  0  0
 13 43  1  0  0  0  0
 14 15  1  0  0  0  0
 14 22  1  0  0  0  0
 14 44  1  0  0  0  0
 15 16  2  0  0  0  0
 15 19  1  0  0  0  0
 16 17  1  0  0  0  0
 16 45  1  0  0  0  0
 17 18  2  0  0  0  0
 17 46  1  0  0  0  0
 18 20  1  0  0  0  0
 18 47  1  0  0  0  0
 19 20  2  0  0  0  0
 19 48  1  0  0  0  0
 20 21  1  0  0  0  0
 22 23  1  0  0  0  0
 22 49  1  0  0  0  0
 23 24  2  0  0  0  0
 23 25  1  0  0  0  0
 25 26  1  0  0  0  0
 25 29  1  0  0  0  0
 25 50  1  0  0  0  0
 26 27  1  0  0  0  0
 27 28  1  0  0  0  0
 27 30  1  0  0  0  0
 27 51  1  0  0  0  0
 28 29  1  0  0  0  0
 28 52  1  0  0  0  0
 28 53  1  0  0  0  0
 29 54  1  0  0  0  0
 29 55  1  0  0  0  0
 30 31  2  0  0  0  0
 30 32  1  0  0  0  0
 32 33  1  0  0  0  0
 32 36  1  0  0  0  0
 33 34  1  0  0  0  0
 33 56  1  0  0  0  0
 33 57  1  0  0  0  0
 34 35  1  0  0  0  0
 34 58  1  0  0  0  0
 34 59  1  0  0  0  0
 35 36  1  0  0  0  0
 35 60  1  0  0  0  0
 35 61  1  0  0  0  0
 36 62  1  0  0  0  0
 36 63  1  0  0  0  0
M  END
> <compound_name>
MAT-POS-a13804f0-4

> <provenance>
{"isomeric_smiles": "c1ccc2c(c1)cncc2NC(=O)[C@@H](c3cccc(c3)Cl)NC(=O)[C@@H]4CC[C@@H](O4)C(=O)N5CCCC5", "inchi": "InChI=1S/C27H27ClN4O4/c28-19-8-5-7-17(14-19)24(26(34)30-21-16-29-15-18-6-1-2-9-20(18)21)31-25(33)22-10-11-23(36-22)27(35)32-12-3-4-13-32/h1-2,5-9,14-16,22-24H,3-4,10-13H2,(H,30,34)(H,31,33)/t22-,23+,24+/m0/s1", "inchi_key": "RZBYEPRBZPLACH-RBZQAINGSA-N", "fixed_inchi": "InChI=1/C27H27ClN4O4/c28-19-8-5-7-17(14-19)24(26(34)30-21-16-29-15-18-6-1-2-9-20(18)21)31-25(33)22-10-11-23(36-22)27(35)32-12-3-4-13-32/h1-2,5-9,14-16,22-24H,3-4,10-13H2,(H,30,34)(H,31,33)/t22-,23+,24+/m0/s1/f/h30-31H", "fixed_inchikey": "RZBYEPRBZPLACH-QJYFVLBXNA-N"}

> <data_format>
sdf

$$$$
