LIG(A-305)
  -OEChem-06042511363D

 35 36  0     1  0  0  0  0  0999 V2000
   13.8712   -1.8965   21.2106 Cl  0  0  0  0  0  0  0  0  0  0  0  0
   12.7302   -1.0485   22.2156 C   0  0  0  0  0  0  0  0  0  0  0  0
   13.1932   -0.1725   23.1767 C   0  0  0  0  0  0  0  0  0  0  0  0
   12.2792    0.4264   24.0277 C   0  0  0  0  0  0  0  0  0  0  0  0
   10.9232    0.1644   23.8907 C   0  0  0  0  0  0  0  0  0  0  0  0
   11.3842   -1.3075   22.0596 C   0  0  0  0  0  0  0  0  0  0  0  0
   10.4632   -0.6906   22.8987 C   0  0  0  0  0  0  0  0  0  0  0  0
    8.9772   -0.9376   22.6836 C   0  0  1  0  0  0  0  0  0  0  0  0
    8.1582   -0.9017   23.9717 C   0  0  0  0  0  0  0  0  0  0  0  0
    6.8002   -1.2197   23.6906 O   0  0  0  0  0  0  0  0  0  0  0  0
    8.4582    0.0364   21.6257 C   0  0  0  0  0  0  0  0  0  0  0  0
    8.7842    1.2144   21.6077 O   0  0  0  0  0  0  0  0  0  0  0  0
    7.7052   -0.5266   20.6637 N   0  0  0  0  0  0  0  0  0  0  0  0
    6.7102   -0.0616   19.7817 C   0  0  0  0  0  0  0  0  0  0  0  0
    5.6592    0.7804   20.1887 C   0  0  0  0  0  0  0  0  0  0  0  0
    5.2642    0.9283   21.6357 C   0  0  0  0  0  0  0  0  0  0  0  0
    6.9852   -0.1665   18.4207 C   0  0  0  0  0  0  0  0  0  0  0  0
    6.3232    0.5045   17.4777 N   0  0  0  0  0  0  0  0  0  0  0  0
    5.3061    1.2775   17.8737 C   0  0  0  0  0  0  0  0  0  0  0  0
    4.9451    1.4384   19.1967 C   0  0  0  0  0  0  0  0  0  0  0  0
   14.2482    0.0418   23.2634 H   0  0  0  0  0  0  0  0  0  0  0  0
   12.6226    1.0990   24.7998 H   0  0  0  0  0  0  0  0  0  0  0  0
   10.2184    0.6306   24.5631 H   0  0  0  0  0  0  0  0  0  0  0  0
   11.0477   -1.9860   21.2897 H   0  0  0  0  0  0  0  0  0  0  0  0
    8.8754   -1.9500   22.2658 H   0  0  0  0  0  0  0  0  0  0  0  0
    8.5649   -1.6353   24.6832 H   0  0  0  0  0  0  0  0  0  0  0  0
    8.2137    0.1051   24.4112 H   0  0  0  0  0  0  0  0  0  0  0  0
    6.7444   -2.1091   23.3613 H   0  0  0  0  0  0  0  0  0  0  0  0
    7.8961   -1.5014   20.5477 H   0  0  0  0  0  0  0  0  0  0  0  0
    6.1193    1.3102   22.2126 H   0  0  0  0  0  0  0  0  0  0  0  0
    4.4237    1.6334   21.7160 H   0  0  0  0  0  0  0  0  0  0  0  0
    4.9607   -0.0508   22.0348 H   0  0  0  0  0  0  0  0  0  0  0  0
    7.7799   -0.8292   18.1113 H   0  0  0  0  0  0  0  0  0  0  0  0
    4.7381    1.8027   17.1201 H   0  0  0  0  0  0  0  0  0  0  0  0
    4.1114    2.0731   19.4585 H   0  0  0  0  0  0  0  0  0  0  0  0
  1  2  1  0  0  0  0
  2  3  2  0  0  0  0
  2  6  1  0  0  0  0
  3  4  1  0  0  0  0
  3 21  1  0  0  0  0
  4  5  2  0  0  0  0
  4 22  1  0  0  0  0
  5  7  1  0  0  0  0
  5 23  1  0  0  0  0
  6  7  2  0  0  0  0
  6 24  1  0  0  0  0
  7  8  1  0  0  0  0
  8  9  1  0  0  0  0
  8 11  1  0  0  0  0
  8 25  1  0  0  0  0
  9 10  1  0  0  0  0
  9 26  1  0  0  0  0
  9 27  1  0  0  0  0
 10 28  1  0  0  0  0
 11 12  2  0  0  0  0
 11 13  1  0  0  0  0
 13 14  1  0  0  0  0
 13 29  1  0  0  0  0
 14 15  2  0  0  0  0
 14 17  1  0  0  0  0
 15 16  1  0  0  0  0
 15 20  1  0  0  0  0
 16 30  1  0  0  0  0
 16 31  1  0  0  0  0
 16 32  1  0  0  0  0
 17 18  2  0  0  0  0
 17 33  1  0  0  0  0
 18 19  1  0  0  0  0
 19 20  2  0  0  0  0
 19 34  1  0  0  0  0
 20 35  1  0  0  0  0
M  END
> <compound_name>
EDG-MED-0da5ad92-5

> <provenance>
{"isomeric_smiles": "Cc1ccncc1NC(=O)[C@H](CO)c2cccc(c2)Cl", "inchi": "InChI=1S/C15H15ClN2O2/c1-10-5-6-17-8-14(10)18-15(20)13(9-19)11-3-2-4-12(16)7-11/h2-8,13,19H,9H2,1H3,(H,18,20)/t13-/m1/s1", "inchi_key": "YUJIYWCEKJSKBQ-CYBMUJFWSA-N", "fixed_inchi": "InChI=1/C15H15ClN2O2/c1-10-5-6-17-8-14(10)18-15(20)13(9-19)11-3-2-4-12(16)7-11/h2-8,13,19H,9H2,1H3,(H,18,20)/t13-/m1/s1/f/h18H", "fixed_inchikey": "YUJIYWCEKJSKBQ-WYGZFEBSNA-N"}

> <data_format>
sdf

$$$$
