LIG(A-305)
  -OEChem-06042511363D

 42 45  0     1  0  0  0  0  0999 V2000
    9.3826    1.0796   21.1168 O   0  0  0  0  0  0  0  0  0  0  0  0
    8.8616    0.0777   21.5809 C   0  0  0  0  0  0  0  0  0  0  0  0
    9.4217   -0.5963   22.8469 C   0  0  1  0  0  0  0  0  0  0  0  0
   10.9307   -0.3494   22.8257 C   0  0  0  0  0  0  0  0  0  0  0  0
   11.7535   -1.0175   21.9206 C   0  0  0  0  0  0  0  0  0  0  0  0
   13.1096   -0.7566   21.9225 C   0  0  0  0  0  0  0  0  0  0  0  0
   14.1424   -1.6897   20.8844 Cl  0  0  0  0  0  0  0  0  0  0  0  0
   13.6777    0.1595   22.7803 C   0  0  0  0  0  0  0  0  0  0  0  0
   12.8778    0.8205   23.6904 C   0  0  0  0  0  0  0  0  0  0  0  0
   11.5188    0.5606   23.7086 C   0  0  0  0  0  0  0  0  0  0  0  0
   10.7950    1.2437   24.6476 O   0  0  0  0  0  0  0  0  0  0  0  0
    9.6690    0.4968   25.1408 C   0  0  0  0  0  0  0  0  0  0  0  0
    8.7098    0.1168   24.0289 C   0  0  0  0  0  0  0  0  0  0  0  0
    9.1806   -2.1173   22.9230 C   0  0  0  0  0  0  0  0  0  0  0  0
    7.8904   -0.5543   20.9200 N   0  0  0  0  0  0  0  0  0  0  0  0
    6.9654   -0.1733   19.9491 C   0  0  0  0  0  0  0  0  0  0  0  0
    5.8554    0.6598   20.2712 C   0  0  0  0  0  0  0  0  0  0  0  0
    5.3626    0.8369   21.5923 C   0  0  0  0  0  0  0  0  0  0  0  0
    4.1997    1.5119   21.8224 C   0  0  0  0  0  0  0  0  0  0  0  0
    3.4776    2.0549   20.7734 C   0  0  0  0  0  0  0  0  0  0  0  0
    3.9244    1.9418   19.4894 C   0  0  0  0  0  0  0  0  0  0  0  0
    5.1244    1.2447   19.2013 C   0  0  0  0  0  0  0  0  0  0  0  0
    5.5952    1.0257   17.8842 C   0  0  0  0  0  0  0  0  0  0  0  0
    6.6501    0.2796   17.5881 N   0  0  0  0  0  0  0  0  0  0  0  0
    7.2852   -0.3224   18.6011 C   0  0  0  0  0  0  0  0  0  0  0  0
   11.3354   -1.7310   21.2259 H   0  0  0  0  0  0  0  0  0  0  0  0
   14.7385    0.3583   22.7412 H   0  0  0  0  0  0  0  0  0  0  0  0
   13.3075    1.5321   24.3800 H   0  0  0  0  0  0  0  0  0  0  0  0
   10.0354   -0.4213   25.6233 H   0  0  0  0  0  0  0  0  0  0  0  0
    9.1318    1.1099   25.8794 H   0  0  0  0  0  0  0  0  0  0  0  0
    7.9445   -0.5585   24.4388 H   0  0  0  0  0  0  0  0  0  0  0  0
    8.2282    1.0306   23.6510 H   0  0  0  0  0  0  0  0  0  0  0  0
    9.6120   -2.5113   23.8550 H   0  0  0  0  0  0  0  0  0  0  0  0
    8.0993   -2.3183   22.9059 H   0  0  0  0  0  0  0  0  0  0  0  0
    9.6584   -2.6077   22.0620 H   0  0  0  0  0  0  0  0  0  0  0  0
    7.8074   -1.5166   21.1789 H   0  0  0  0  0  0  0  0  0  0  0  0
    5.9166    0.4313   22.4259 H   0  0  0  0  0  0  0  0  0  0  0  0
    3.8384    1.6240   22.8339 H   0  0  0  0  0  0  0  0  0  0  0  0
    2.5514    2.5732   20.9736 H   0  0  0  0  0  0  0  0  0  0  0  0
    3.3585    2.3877   18.6848 H   0  0  0  0  0  0  0  0  0  0  0  0
    5.0621    1.4952   17.0708 H   0  0  0  0  0  0  0  0  0  0  0  0
    8.1099   -0.9746   18.3543 H   0  0  0  0  0  0  0  0  0  0  0  0
  1  2  2  0  0  0  0
  2  3  1  0  0  0  0
  2 15  1  0  0  0  0
  3  4  1  0  0  0  0
  3 13  1  0  0  0  0
  3 14  1  0  0  0  0
  4  5  2  0  0  0  0
  4 10  1  0  0  0  0
  5  6  1  0  0  0  0
  5 26  1  0  0  0  0
  6  7  1  0  0  0  0
  6  8  2  0  0  0  0
  8  9  1  0  0  0  0
  8 27  1  0  0  0  0
  9 10  2  0  0  0  0
  9 28  1  0  0  0  0
 10 11  1  0  0  0  0
 11 12  1  0  0  0  0
 12 13  1  0  0  0  0
 12 29  1  0  0  0  0
 12 30  1  0  0  0  0
 13 31  1  0  0  0  0
 13 32  1  0  0  0  0
 14 33  1  0  0  0  0
 14 34  1  0  0  0  0
 14 35  1  0  0  0  0
 15 16  1  0  0  0  0
 15 36  1  0  0  0  0
 16 17  2  0  0  0  0
 16 25  1  0  0  0  0
 17 18  1  0  0  0  0
 17 22  1  0  0  0  0
 18 19  2  0  0  0  0
 18 37  1  0  0  0  0
 19 20  1  0  0  0  0
 19 38  1  0  0  0  0
 20 21  2  0  0  0  0
 20 39  1  0  0  0  0
 21 22  1  0  0  0  0
 21 40  1  0  0  0  0
 22 23  2  0  0  0  0
 23 24  1  0  0  0  0
 23 41  1  0  0  0  0
 24 25  2  0  0  0  0
 25 42  1  0  0  0  0
M  END
> <compound_name>
EDJ-MED-e4b030d8-13

> <provenance>
{"isomeric_smiles": "C[C@]1(CCOc2c1cc(cc2)Cl)C(=O)Nc3cncc4c3cccc4", "inchi": "InChI=1S/C20H17ClN2O2/c1-20(8-9-25-18-7-6-14(21)10-16(18)20)19(24)23-17-12-22-11-13-4-2-3-5-15(13)17/h2-7,10-12H,8-9H2,1H3,(H,23,24)/t20-/m1/s1", "inchi_key": "CPQDCUNLQZNEBN-HXUWFJFHSA-N", "fixed_inchi": "InChI=1/C20H17ClN2O2/c1-20(8-9-25-18-7-6-14(21)10-16(18)20)19(24)23-17-12-22-11-13-4-2-3-5-15(13)17/h2-7,10-12H,8-9H2,1H3,(H,23,24)/t20-/m1/s1/f/h23H", "fixed_inchikey": "CPQDCUNLQZNEBN-ZHBKPSIFNA-N"}

> <data_format>
sdf

$$$$
