LIG(A-305)
  -OEChem-06042511373D

 41 44  0     1  0  0  0  0  0999 V2000
    8.8568    1.0731   20.9942 O   0  0  0  0  0  0  0  0  0  0  0  0
    8.2847    0.1761   21.5933 C   0  0  0  0  0  0  0  0  0  0  0  0
    8.6748   -0.1709   23.0222 C   0  0  2  0  0  0  0  0  0  0  0  0
   10.1738   -0.3870   23.1232 C   0  0  0  0  0  0  0  0  0  0  0  0
   10.8989    0.1720   24.1671 C   0  0  0  0  0  0  0  0  0  0  0  0
   12.2458   -0.0932   24.3201 C   0  0  0  0  0  0  0  0  0  0  0  0
   10.8387   -1.1930   22.2091 C   0  0  0  0  0  0  0  0  0  0  0  0
   12.1846   -1.4762   22.3541 C   0  0  0  0  0  0  0  0  0  0  0  0
   12.8677   -0.9412   23.4251 C   0  0  0  0  0  0  0  0  0  0  0  0
   14.5087   -1.4423   23.7260 Cl  0  0  0  0  0  0  0  0  0  0  0  0
    7.2467   -0.5198   21.0323 N   0  0  0  0  0  0  0  0  0  0  0  0
    6.6006   -1.7217   21.6023 C   0  0  0  0  0  0  0  0  0  0  0  0
    7.4366   -2.3528   22.6933 C   0  0  0  0  0  0  0  0  0  0  0  0
    7.8677   -1.2988   23.7043 C   0  0  0  0  0  0  0  0  0  0  0  0
    6.5077    0.0643   19.9553 C   0  0  0  0  0  0  0  0  0  0  0  0
    5.3777    0.8994   20.2064 C   0  0  0  0  0  0  0  0  0  0  0  0
    4.9148    1.2504   21.5034 C   0  0  0  0  0  0  0  0  0  0  0  0
    3.8259    2.0575   21.6664 C   0  0  0  0  0  0  0  0  0  0  0  0
    3.1439    2.5565   20.5695 C   0  0  0  0  0  0  0  0  0  0  0  0
    3.5548    2.2625   19.3035 C   0  0  0  0  0  0  0  0  0  0  0  0
    4.6817    1.4314   19.0854 C   0  0  0  0  0  0  0  0  0  0  0  0
    5.1716    1.1174   17.7974 C   0  0  0  0  0  0  0  0  0  0  0  0
    6.2316    0.3573   17.5693 N   0  0  0  0  0  0  0  0  0  0  0  0
    6.8656   -0.1538   18.6313 C   0  0  0  0  0  0  0  0  0  0  0  0
    8.4661    0.7333   23.6128 H   0  0  0  0  0  0  0  0  0  0  0  0
   10.4020    0.8240   24.8704 H   0  0  0  0  0  0  0  0  0  0  0  0
   12.8044    0.3562   25.1278 H   0  0  0  0  0  0  0  0  0  0  0  0
   10.2961   -1.6057   21.3714 H   0  0  0  0  0  0  0  0  0  0  0  0
   12.6926   -2.1066   21.6393 H   0  0  0  0  0  0  0  0  0  0  0  0
    5.6258   -1.4346   22.0235 H   0  0  0  0  0  0  0  0  0  0  0  0
    6.4504   -2.4584   20.7993 H   0  0  0  0  0  0  0  0  0  0  0  0
    6.8430   -3.1249   23.2046 H   0  0  0  0  0  0  0  0  0  0  0  0
    8.3297   -2.8133   22.2458 H   0  0  0  0  0  0  0  0  0  0  0  0
    6.9731   -0.8659   24.1756 H   0  0  0  0  0  0  0  0  0  0  0  0
    8.4940   -1.7740   24.4736 H   0  0  0  0  0  0  0  0  0  0  0  0
    5.4322    0.8731   22.3731 H   0  0  0  0  0  0  0  0  0  0  0  0
    3.4926    2.3096   22.6623 H   0  0  0  0  0  0  0  0  0  0  0  0
    2.2781    3.1847   20.7184 H   0  0  0  0  0  0  0  0  0  0  0  0
    3.0166    2.6666   18.4588 H   0  0  0  0  0  0  0  0  0  0  0  0
    4.6479    1.5234   16.9446 H   0  0  0  0  0  0  0  0  0  0  0  0
    7.7219   -0.7846   18.4442 H   0  0  0  0  0  0  0  0  0  0  0  0
  1  2  2  0  0  0  0
  2  3  1  0  0  0  0
  2 11  1  0  0  0  0
  3  4  1  0  0  0  0
  3 14  1  0  0  0  0
  3 25  1  0  0  0  0
  4  5  2  0  0  0  0
  4  7  1  0  0  0  0
  5  6  1  0  0  0  0
  5 26  1  0  0  0  0
  6  9  2  0  0  0  0
  6 27  1  0  0  0  0
  7  8  2  0  0  0  0
  7 28  1  0  0  0  0
  8  9  1  0  0  0  0
  8 29  1  0  0  0  0
  9 10  1  0  0  0  0
 11 12  1  0  0  0  0
 11 15  1  0  0  0  0
 12 13  1  0  0  0  0
 12 30  1  0  0  0  0
 12 31  1  0  0  0  0
 13 14  1  0  0  0  0
 13 32  1  0  0  0  0
 13 33  1  0  0  0  0
 14 34  1  0  0  0  0
 14 35  1  0  0  0  0
 15 16  2  0  0  0  0
 15 24  1  0  0  0  0
 16 17  1  0  0  0  0
 16 21  1  0  0  0  0
 17 18  2  0  0  0  0
 17 36  1  0  0  0  0
 18 19  1  0  0  0  0
 18 37  1  0  0  0  0
 19 20  2  0  0  0  0
 19 38  1  0  0  0  0
 20 21  1  0  0  0  0
 20 39  1  0  0  0  0
 21 22  2  0  0  0  0
 22 23  1  0  0  0  0
 22 40  1  0  0  0  0
 23 24  2  0  0  0  0
 24 41  1  0  0  0  0
M  END
> <compound_name>
ALP-POS-ce760d3f-8

> <provenance>
{"isomeric_smiles": "c1ccc2c(c1)cncc2N3CCC[C@H](C3=O)c4ccc(cc4)Cl", "inchi": "InChI=1S/C20H17ClN2O/c21-16-9-7-14(8-10-16)18-6-3-11-23(20(18)24)19-13-22-12-15-4-1-2-5-17(15)19/h1-2,4-5,7-10,12-13,18H,3,6,11H2/t18-/m0/s1", "inchi_key": "SHKWJYBWRXZSMY-SFHVURJKSA-N", "fixed_inchi": "InChI=1/C20H17ClN2O/c21-16-9-7-14(8-10-16)18-6-3-11-23(20(18)24)19-13-22-12-15-4-1-2-5-17(15)19/h1-2,4-5,7-10,12-13,18H,3,6,11H2/t18-/m0/s1", "fixed_inchikey": "SHKWJYBWRXZSMY-SFHVURJKNA-N"}

> <data_format>
sdf

$$$$
