LIG(A-307)
  -OEChem-06042511383D

 34 36  0     0  0  0  0  0  0999 V2000
    9.3521    0.9590   21.0577 O   0  0  0  0  0  0  0  0  0  0  0  0
    8.8291   -0.0830   21.4585 C   0  0  0  0  0  0  0  0  0  0  0  0
    9.4526   -0.9277   22.5523 C   0  0  0  0  0  0  0  0  0  0  0  0
   10.9251   -0.6333   22.7147 C   0  0  0  0  0  0  0  0  0  0  0  0
   11.8619   -1.3012   21.9344 C   0  0  0  0  0  0  0  0  0  0  0  0
   13.1855   -0.9582   22.0490 C   0  0  0  0  0  0  0  0  0  0  0  0
   14.0714   -1.5346   21.1901 F   0  0  0  0  0  0  0  0  0  0  0  0
   13.6523   -0.0105   22.9278 C   0  0  0  0  0  0  0  0  0  0  0  0
   11.3560    0.3344   23.6186 C   0  0  0  0  0  0  0  0  0  0  0  0
   12.7005    0.6075   23.7039 C   0  0  0  0  0  0  0  0  0  0  0  0
   13.1163    1.5171   24.6274 F   0  0  0  0  0  0  0  0  0  0  0  0
    7.6752   -0.5744   20.9671 N   0  0  0  0  0  0  0  0  0  0  0  0
    6.8991   -0.0477   19.9217 C   0  0  0  0  0  0  0  0  0  0  0  0
    5.7556    0.7358   20.2557 C   0  0  0  0  0  0  0  0  0  0  0  0
    5.3121    0.9600   21.5868 C   0  0  0  0  0  0  0  0  0  0  0  0
    4.2386    1.7667   21.8429 C   0  0  0  0  0  0  0  0  0  0  0  0
    3.5537    2.3832   20.8059 C   0  0  0  0  0  0  0  0  0  0  0  0
    3.9353    2.1909   19.5070 C   0  0  0  0  0  0  0  0  0  0  0  0
    5.0408    1.3634   19.1958 C   0  0  0  0  0  0  0  0  0  0  0  0
    5.5023    1.1511   17.8747 C   0  0  0  0  0  0  0  0  0  0  0  0
    6.5619    0.4137   17.5640 N   0  0  0  0  0  0  0  0  0  0  0  0
    7.2289   -0.1656   18.5711 C   0  0  0  0  0  0  0  0  0  0  0  0
    8.9398   -0.7160   23.5022 H   0  0  0  0  0  0  0  0  0  0  0  0
    9.3276   -1.9903   22.2971 H   0  0  0  0  0  0  0  0  0  0  0  0
   11.5530   -2.0769   21.2494 H   0  0  0  0  0  0  0  0  0  0  0  0
   14.7016    0.2338   23.0040 H   0  0  0  0  0  0  0  0  0  0  0  0
   10.6472    0.8606   24.2408 H   0  0  0  0  0  0  0  0  0  0  0  0
    7.3317   -1.4100   21.3957 H   0  0  0  0  0  0  0  0  0  0  0  0
    5.8302    0.4865   22.4076 H   0  0  0  0  0  0  0  0  0  0  0  0
    3.9205    1.9257   22.8627 H   0  0  0  0  0  0  0  0  0  0  0  0
    2.7108    3.0213   21.0267 H   0  0  0  0  0  0  0  0  0  0  0  0
    3.3884    2.6749   18.7113 H   0  0  0  0  0  0  0  0  0  0  0  0
    4.9579    1.6189   17.0677 H   0  0  0  0  0  0  0  0  0  0  0  0
    8.0874   -0.7701   18.3183 H   0  0  0  0  0  0  0  0  0  0  0  0
  1  2  2  0  0  0  0
  2  3  1  0  0  0  0
  2 12  1  0  0  0  0
  3  4  1  0  0  0  0
  3 23  1  0  0  0  0
  3 24  1  0  0  0  0
  4  5  2  0  0  0  0
  4  9  1  0  0  0  0
  5  6  1  0  0  0  0
  5 25  1  0  0  0  0
  6  7  1  0  0  0  0
  6  8  2  0  0  0  0
  8 10  1  0  0  0  0
  8 26  1  0  0  0  0
  9 10  2  0  0  0  0
  9 27  1  0  0  0  0
 10 11  1  0  0  0  0
 12 13  1  0  0  0  0
 12 28  1  0  0  0  0
 13 14  2  0  0  0  0
 13 22  1  0  0  0  0
 14 15  1  0  0  0  0
 14 19  1  0  0  0  0
 15 16  2  0  0  0  0
 15 29  1  0  0  0  0
 16 17  1  0  0  0  0
 16 30  1  0  0  0  0
 17 18  2  0  0  0  0
 17 31  1  0  0  0  0
 18 19  1  0  0  0  0
 18 32  1  0  0  0  0
 19 20  2  0  0  0  0
 20 21  1  0  0  0  0
 20 33  1  0  0  0  0
 21 22  2  0  0  0  0
 22 34  1  0  0  0  0
M  END
> <compound_name>
RAL-THA-2d450e86-16

> <provenance>
{"isomeric_smiles": "c1ccc2c(c1)cncc2NC(=O)Cc3cc(cc(c3)F)F", "inchi": "InChI=1S/C17H12F2N2O/c18-13-5-11(6-14(19)8-13)7-17(22)21-16-10-20-9-12-3-1-2-4-15(12)16/h1-6,8-10H,7H2,(H,21,22)", "inchi_key": "RXQWWUHGRJKJHB-UHFFFAOYSA-N", "fixed_inchi": "InChI=1/C17H12F2N2O/c18-13-5-11(6-14(19)8-13)7-17(22)21-16-10-20-9-12-3-1-2-4-15(12)16/h1-6,8-10H,7H2,(H,21,22)/f/h21H", "fixed_inchikey": "RXQWWUHGRJKJHB-PKSOQXRJNA-N"}

> <data_format>
sdf

$$$$
