LIG(A-305)
  -OEChem-06042511333D

 37 38  0     0  0  0  0  0  0999 V2000
    9.3652    0.5686   20.9049 O   0  0  0  0  0  0  0  0  0  0  0  0
    8.6302   -0.1834   21.5398 C   0  0  0  0  0  0  0  0  0  0  0  0
    7.3492   -0.4515   21.2077 N   0  0  0  0  0  0  0  0  0  0  0  0
    6.6783    0.0875   20.0797 C   0  0  0  0  0  0  0  0  0  0  0  0
    7.2304   -0.0194   18.7987 C   0  0  0  0  0  0  0  0  0  0  0  0
    6.6565    0.4966   17.7067 N   0  0  0  0  0  0  0  0  0  0  0  0
    5.4874    1.1355   17.8736 C   0  0  0  0  0  0  0  0  0  0  0  0
    4.8643    1.2904   19.0995 C   0  0  0  0  0  0  0  0  0  0  0  0
    5.4592    0.7724   20.2416 C   0  0  0  0  0  0  0  0  0  0  0  0
    4.8271    0.9793   21.5975 C   0  0  0  0  0  0  0  0  0  0  0  0
    9.0991   -0.8234   22.8329 C   0  0  0  0  0  0  0  0  0  0  0  0
   10.5261   -0.5864   23.0360 N   0  3  0  0  0  0  0  0  0  0  0  0
   10.8980   -0.7284   24.4560 C   0  0  0  0  0  0  0  0  0  0  0  0
   12.3699   -0.4303   24.6772 C   0  0  0  0  0  0  0  0  0  0  0  0
   13.2440   -1.3032   23.8002 C   0  0  0  0  0  0  0  0  0  0  0  0
   12.7972   -1.2332   22.3452 C   0  0  0  0  0  0  0  0  0  0  0  0
   11.3192   -1.5203   22.2191 C   0  0  0  0  0  0  0  0  0  0  0  0
    6.8368   -1.0743   21.7990 H   0  0  0  0  0  0  0  0  0  0  0  0
    8.1672   -0.5451   18.6862 H   0  0  0  0  0  0  0  0  0  0  0  0
    5.0059    1.5523   17.0014 H   0  0  0  0  0  0  0  0  0  0  0  0
    3.9207    1.8114   19.1673 H   0  0  0  0  0  0  0  0  0  0  0  0
    5.5141    1.5501   22.2397 H   0  0  0  0  0  0  0  0  0  0  0  0
    3.8856    1.5363   21.4819 H   0  0  0  0  0  0  0  0  0  0  0  0
    4.6209    0.0022   22.0587 H   0  0  0  0  0  0  0  0  0  0  0  0
    8.5375   -0.3916   23.6744 H   0  0  0  0  0  0  0  0  0  0  0  0
    8.9156   -1.9071   22.7872 H   0  0  0  0  0  0  0  0  0  0  0  0
   10.7386    0.3467   22.7458 H   0  0  0  0  0  0  0  0  0  0  0  0
   10.2974   -0.0278   25.0548 H   0  0  0  0  0  0  0  0  0  0  0  0
   10.6894   -1.7590   24.7790 H   0  0  0  0  0  0  0  0  0  0  0  0
   12.5621    0.6258   24.4370 H   0  0  0  0  0  0  0  0  0  0  0  0
   12.6193   -0.6177   25.7320 H   0  0  0  0  0  0  0  0  0  0  0  0
   14.2861   -0.9587   23.8738 H   0  0  0  0  0  0  0  0  0  0  0  0
   13.1768   -2.3446   24.1478 H   0  0  0  0  0  0  0  0  0  0  0  0
   13.0029   -0.2260   21.9537 H   0  0  0  0  0  0  0  0  0  0  0  0
   13.3593   -1.9759   21.7600 H   0  0  0  0  0  0  0  0  0  0  0  0
   11.0219   -1.4173   21.1650 H   0  0  0  0  0  0  0  0  0  0  0  0
   11.1229   -2.5487   22.5565 H   0  0  0  0  0  0  0  0  0  0  0  0
  1  2  2  0  0  0  0
  2  3  1  0  0  0  0
  2 11  1  0  0  0  0
  3  4  1  0  0  0  0
  3 18  1  0  0  0  0
  4  5  2  0  0  0  0
  4  9  1  0  0  0  0
  5  6  1  0  0  0  0
  5 19  1  0  0  0  0
  6  7  2  0  0  0  0
  7  8  1  0  0  0  0
  7 20  1  0  0  0  0
  8  9  2  0  0  0  0
  8 21  1  0  0  0  0
  9 10  1  0  0  0  0
 10 22  1  0  0  0  0
 10 23  1  0  0  0  0
 10 24  1  0  0  0  0
 11 12  1  0  0  0  0
 11 25  1  0  0  0  0
 11 26  1  0  0  0  0
 12 13  1  0  0  0  0
 12 17  1  0  0  0  0
 12 27  1  0  0  0  0
 13 14  1  0  0  0  0
 13 28  1  0  0  0  0
 13 29  1  0  0  0  0
 14 15  1  0  0  0  0
 14 30  1  0  0  0  0
 14 31  1  0  0  0  0
 15 16  1  0  0  0  0
 15 32  1  0  0  0  0
 15 33  1  0  0  0  0
 16 17  1  0  0  0  0
 16 34  1  0  0  0  0
 16 35  1  0  0  0  0
 17 36  1  0  0  0  0
 17 37  1  0  0  0  0
M  CHG  1  12   1
M  END
> <compound_name>
BEN-DND-93268d01-11

> <provenance>
{"isomeric_smiles": "Cc1ccncc1NC(=O)C[NH+]2CCCCC2", "inchi": "InChI=1S/C13H19N3O/c1-11-5-6-14-9-12(11)15-13(17)10-16-7-3-2-4-8-16/h5-6,9H,2-4,7-8,10H2,1H3,(H,15,17)/p+1", "inchi_key": "KNBSSRRKRQQGOO-UHFFFAOYSA-O", "fixed_inchi": "InChI=1/C13H19N3O/c1-11-5-6-14-9-12(11)15-13(17)10-16-7-3-2-4-8-16/h5-6,9H,2-4,7-8,10H2,1H3,(H,15,17)/p+1/fC13H20N3O/h15-16H/q+1", "fixed_inchikey": "KNBSSRRKRQQGOO-OGPRFKQVNA-O"}

> <data_format>
sdf

$$$$
