LIG(A-305)
  -OEChem-06042511303D

 34 35  0     0  0  0  0  0  0999 V2000
    7.2989   -0.5036   20.9936 N   0  0  0  0  0  0  0  0  0  0  0  0
    5.3568    1.2764   17.8157 C   0  0  0  0  0  0  0  0  0  0  0  0
    8.4759   -0.0676   21.5116 C   0  0  0  0  0  0  0  0  0  0  0  0
   11.5330   -1.1254   21.9716 C   0  0  0  0  0  0  0  0  0  0  0  0
    9.1200   -0.8705   22.6266 C   0  0  0  0  0  0  0  0  0  0  0  0
   13.2809    0.1727   23.0106 C   0  0  0  0  0  0  0  0  0  0  0  0
   12.3309    0.7896   23.8096 C   0  0  0  0  0  0  0  0  0  0  0  0
   10.9919    0.4485   23.6926 C   0  0  0  0  0  0  0  0  0  0  0  0
    7.0689    0.0204   18.6557 C   0  0  0  0  0  0  0  0  0  0  0  0
    5.4479    0.9463   20.1847 C   0  0  0  0  0  0  0  0  0  0  0  0
    6.5959    0.1864   19.9557 C   0  0  0  0  0  0  0  0  0  0  0  0
    4.8198    1.4873   19.0687 C   0  0  0  0  0  0  0  0  0  0  0  0
    4.9139    1.2123   21.5697 C   0  0  0  0  0  0  0  0  0  0  0  0
    6.7260   -1.7726   21.4456 C   0  0  0  0  0  0  0  0  0  0  0  0
    6.4648    0.5594   17.5927 N   0  0  0  0  0  0  0  0  0  0  0  0
    9.0259    0.9455   21.0947 O   0  0  0  0  0  0  0  0  0  0  0  0
   12.8620   -0.7873   22.1106 C   0  0  0  0  0  0  0  0  0  0  0  0
   10.5800   -0.5115   22.7766 C   0  0  0  0  0  0  0  0  0  0  0  0
   14.0500   -1.6862   21.2155 Cl  0  0  0  0  0  0  0  0  0  0  0  0
    4.8545    1.7148   16.9661 H   0  0  0  0  0  0  0  0  0  0  0  0
   11.2336   -1.8629   21.2416 H   0  0  0  0  0  0  0  0  0  0  0  0
    8.5981   -0.6579   23.5712 H   0  0  0  0  0  0  0  0  0  0  0  0
    9.0349   -1.9422   22.3939 H   0  0  0  0  0  0  0  0  0  0  0  0
   14.3251    0.4368   23.0901 H   0  0  0  0  0  0  0  0  0  0  0  0
   12.6347    1.5386   24.5259 H   0  0  0  0  0  0  0  0  0  0  0  0
   10.2606    0.9350   24.3210 H   0  0  0  0  0  0  0  0  0  0  0  0
    7.9609   -0.5684   18.5007 H   0  0  0  0  0  0  0  0  0  0  0  0
    3.9171    2.0692   19.1821 H   0  0  0  0  0  0  0  0  0  0  0  0
    5.6745    1.7434   22.1608 H   0  0  0  0  0  0  0  0  0  0  0  0
    4.0064    1.8301   21.5003 H   0  0  0  0  0  0  0  0  0  0  0  0
    4.6708    0.2573   22.0585 H   0  0  0  0  0  0  0  0  0  0  0  0
    5.7788   -1.9567   20.9175 H   0  0  0  0  0  0  0  0  0  0  0  0
    7.4303   -2.5899   21.2308 H   0  0  0  0  0  0  0  0  0  0  0  0
    6.5387   -1.7252   22.5285 H   0  0  0  0  0  0  0  0  0  0  0  0
  1  3  1  0  0  0  0
  1 11  1  0  0  0  0
  1 14  1  0  0  0  0
  2 12  2  0  0  0  0
  2 15  1  0  0  0  0
  2 20  1  0  0  0  0
  3  5  1  0  0  0  0
  3 16  2  0  0  0  0
  4 17  2  0  0  0  0
  4 18  1  0  0  0  0
  4 21  1  0  0  0  0
  5 18  1  0  0  0  0
  5 22  1  0  0  0  0
  5 23  1  0  0  0  0
  6  7  2  0  0  0  0
  6 17  1  0  0  0  0
  6 24  1  0  0  0  0
  7  8  1  0  0  0  0
  7 25  1  0  0  0  0
  8 18  2  0  0  0  0
  8 26  1  0  0  0  0
  9 11  1  0  0  0  0
  9 15  2  0  0  0  0
  9 27  1  0  0  0  0
 10 11  2  0  0  0  0
 10 12  1  0  0  0  0
 10 13  1  0  0  0  0
 12 28  1  0  0  0  0
 13 29  1  0  0  0  0
 13 30  1  0  0  0  0
 13 31  1  0  0  0  0
 14 32  1  0  0  0  0
 14 33  1  0  0  0  0
 14 34  1  0  0  0  0
 17 19  1  0  0  0  0
M  END
> <compound_name>
JAN-GHE-83b26c96-15

> <provenance>
{"isomeric_smiles": "Cc1ccncc1N(C)C(=O)Cc2cccc(c2)Cl", "inchi": "InChI=1S/C15H15ClN2O/c1-11-6-7-17-10-14(11)18(2)15(19)9-12-4-3-5-13(16)8-12/h3-8,10H,9H2,1-2H3", "inchi_key": "KTTFDHLIVPVQIE-UHFFFAOYSA-N", "fixed_inchi": "InChI=1/C15H15ClN2O/c1-11-6-7-17-10-14(11)18(2)15(19)9-12-4-3-5-13(16)8-12/h3-8,10H,9H2,1-2H3", "fixed_inchikey": "KTTFDHLIVPVQIE-UHFFFAOYNA-N"}

> <data_format>
sdf

$$$$
