LIG(A-305)
  -OEChem-06042511343D

 46 48  0     0  0  0  0  0  0999 V2000
    6.4300    1.1030   16.7344 O   0  0  0  0  0  0  0  0  0  0  0  0
    5.8400    0.8250   17.7824 C   0  0  0  0  0  0  0  0  0  0  0  0
    6.2530   -0.1960   18.6735 C   0  0  0  0  0  0  0  0  0  0  0  0
    4.7810    1.5840   18.1973 N   0  0  0  0  0  0  0  0  0  0  0  0
    4.1659    1.4650   19.4433 C   0  0  0  0  0  0  0  0  0  0  0  0
    4.6229    0.4921   20.3653 C   0  0  0  0  0  0  0  0  0  0  0  0
    4.0378    0.4411   21.6513 C   0  0  0  0  0  0  0  0  0  0  0  0
    4.5488   -0.4529   22.7514 C   0  0  0  0  0  0  0  0  0  0  0  0
    2.9908    1.3131   21.9472 C   0  0  0  0  0  0  0  0  0  0  0  0
    2.5308    2.2311   21.0252 C   0  0  0  0  0  0  0  0  0  0  0  0
    3.1179    2.3200   19.7772 C   0  0  0  0  0  0  0  0  0  0  0  0
    5.7079   -0.4139   19.9004 C   0  0  0  0  0  0  0  0  0  0  0  0
    6.1789   -1.6289   20.6385 C   0  0  0  0  0  0  0  0  0  0  0  0
    5.5759   -2.6989   20.5665 O   0  0  0  0  0  0  0  0  0  0  0  0
    7.2888   -1.4929   21.3615 N   0  0  0  0  0  0  0  0  0  0  0  0
    7.7398   -2.5268   22.2826 C   0  0  0  0  0  0  0  0  0  0  0  0
    9.2318   -2.5108   22.4317 C   0  0  0  0  0  0  0  0  0  0  0  0
    9.6058   -1.1868   22.8417 O   0  0  0  0  0  0  0  0  0  0  0  0
   10.9298   -0.8308   22.8147 C   0  0  0  0  0  0  0  0  0  0  0  0
   11.1887    0.5012   23.1847 C   0  0  0  0  0  0  0  0  0  0  0  0
   10.0827    1.2332   23.5226 O   0  0  0  0  0  0  0  0  0  0  0  0
   10.2836    2.5092   24.1296 C   0  0  0  0  0  0  0  0  0  0  0  0
   11.9798   -1.6698   22.4658 C   0  0  0  0  0  0  0  0  0  0  0  0
   13.2778   -1.1818   22.4879 C   0  0  0  0  0  0  0  0  0  0  0  0
   13.5327    0.1232   22.8608 C   0  0  0  0  0  0  0  0  0  0  0  0
   12.4957    0.9732   23.2037 C   0  0  0  0  0  0  0  0  0  0  0  0
    7.0555   -0.8457   18.3568 H   0  0  0  0  0  0  0  0  0  0  0  0
    4.4243    2.2715   17.5686 H   0  0  0  0  0  0  0  0  0  0  0  0
    5.5934   -0.1944   22.9791 H   0  0  0  0  0  0  0  0  0  0  0  0
    3.9323   -0.3149   23.6519 H   0  0  0  0  0  0  0  0  0  0  0  0
    4.4933   -1.5023   22.4264 H   0  0  0  0  0  0  0  0  0  0  0  0
    2.5283    1.2690   22.9222 H   0  0  0  0  0  0  0  0  0  0  0  0
    1.7083    2.8830   21.2800 H   0  0  0  0  0  0  0  0  0  0  0  0
    2.7654    3.0498   19.0634 H   0  0  0  0  0  0  0  0  0  0  0  0
    7.8285   -0.6561   21.2694 H   0  0  0  0  0  0  0  0  0  0  0  0
    7.2795   -2.3555   23.2669 H   0  0  0  0  0  0  0  0  0  0  0  0
    7.4286   -3.5095   21.8984 H   0  0  0  0  0  0  0  0  0  0  0  0
    9.5420   -3.2422   23.1926 H   0  0  0  0  0  0  0  0  0  0  0  0
    9.7086   -2.7562   21.4713 H   0  0  0  0  0  0  0  0  0  0  0  0
    9.3088    2.9727   24.3412 H   0  0  0  0  0  0  0  0  0  0  0  0
   10.8419    2.3844   25.0691 H   0  0  0  0  0  0  0  0  0  0  0  0
   10.8556    3.1542   23.4462 H   0  0  0  0  0  0  0  0  0  0  0  0
   11.7874   -2.6933   22.1798 H   0  0  0  0  0  0  0  0  0  0  0  0
   14.0971   -1.8286   22.2107 H   0  0  0  0  0  0  0  0  0  0  0  0
   14.5505    0.4838   22.8852 H   0  0  0  0  0  0  0  0  0  0  0  0
   12.7007    1.9958   23.4841 H   0  0  0  0  0  0  0  0  0  0  0  0
  1  2  2  0  0  0  0
  2  3  1  0  0  0  0
  2  4  1  0  0  0  0
  3 12  2  0  0  0  0
  3 27  1  0  0  0  0
  4  5  1  0  0  0  0
  4 28  1  0  0  0  0
  5  6  2  0  0  0  0
  5 11  1  0  0  0  0
  6  7  1  0  0  0  0
  6 12  1  0  0  0  0
  7  8  1  0  0  0  0
  7  9  2  0  0  0  0
  8 29  1  0  0  0  0
  8 30  1  0  0  0  0
  8 31  1  0  0  0  0
  9 10  1  0  0  0  0
  9 32  1  0  0  0  0
 10 11  2  0  0  0  0
 10 33  1  0  0  0  0
 11 34  1  0  0  0  0
 12 13  1  0  0  0  0
 13 14  2  0  0  0  0
 13 15  1  0  0  0  0
 15 16  1  0  0  0  0
 15 35  1  0  0  0  0
 16 17  1  0  0  0  0
 16 36  1  0  0  0  0
 16 37  1  0  0  0  0
 17 18  1  0  0  0  0
 17 38  1  0  0  0  0
 17 39  1  0  0  0  0
 18 19  1  0  0  0  0
 19 20  2  0  0  0  0
 19 23  1  0  0  0  0
 20 21  1  0  0  0  0
 20 26  1  0  0  0  0
 21 22  1  0  0  0  0
 22 40  1  0  0  0  0
 22 41  1  0  0  0  0
 22 42  1  0  0  0  0
 23 24  2  0  0  0  0
 23 43  1  0  0  0  0
 24 25  1  0  0  0  0
 24 44  1  0  0  0  0
 25 26  2  0  0  0  0
 25 45  1  0  0  0  0
 26 46  1  0  0  0  0
M  END
> <compound_name>
EDJ-MED-6af13d92-1

> <provenance>
{"isomeric_smiles": "Cc1cccc2c1c(cc(=O)[nH]2)C(=O)NCCOc3ccccc3OC", "inchi": "InChI=1S/C20H20N2O4/c1-13-6-5-7-15-19(13)14(12-18(23)22-15)20(24)21-10-11-26-17-9-4-3-8-16(17)25-2/h3-9,12H,10-11H2,1-2H3,(H,21,24)(H,22,23)", "inchi_key": "FVKXXNFROYGAEF-UHFFFAOYSA-N", "fixed_inchi": "InChI=1/C20H20N2O4/c1-13-6-5-7-15-19(13)14(12-18(23)22-15)20(24)21-10-11-26-17-9-4-3-8-16(17)25-2/h3-9,12H,10-11H2,1-2H3,(H,21,24)(H,22,23)/f/h21-22H", "fixed_inchikey": "FVKXXNFROYGAEF-XBTAAFKLNA-N"}

> <data_format>
sdf

$$$$
