LIG(A-305)
  -OEChem-06042511343D

 35 35  0     1  0  0  0  0  0999 V2000
    7.8180    4.8514   22.6084 C   0  0  0  0  0  0  0  0  0  0  0  0
    7.0423   -0.3184   20.1413 C   0  0  0  0  0  0  0  0  0  0  0  0
    9.1205    0.3283   22.3561 C   0  0  0  0  0  0  0  0  0  0  0  0
   10.0503   -1.8568   21.8970 C   0  0  0  0  0  0  0  0  0  0  0  0
   11.4314   -1.6549   22.3409 C   0  0  0  0  0  0  0  0  0  0  0  0
   12.5714   -1.7000   22.7428 C   0  0  0  0  0  0  0  0  0  0  0  0
    7.3689    3.4735   22.9704 C   0  0  0  0  0  0  0  0  0  0  0  0
    7.9316    1.0964   22.9173 C   0  0  2  0  0  0  0  0  0  0  0  0
    6.5986    0.4585   22.4944 C   0  0  0  0  0  0  0  0  0  0  0  0
    6.3604    0.5216   21.0064 C   0  0  0  0  0  0  0  0  0  0  0  0
    5.4795    1.4437   20.4585 C   0  0  0  0  0  0  0  0  0  0  0  0
    5.2794    1.5247   19.0905 C   0  0  0  0  0  0  0  0  0  0  0  0
    5.9722    0.6707   18.2494 C   0  0  0  0  0  0  0  0  0  0  0  0
    6.8582   -0.2484   18.7733 C   0  0  0  0  0  0  0  0  0  0  0  0
    8.0647    2.4674   22.4463 N   0  0  0  0  0  0  0  0  0  0  0  0
    9.1574   -0.9747   22.6181 N   0  0  0  0  0  0  0  0  0  0  0  0
    6.3919    3.2655   23.6814 O   0  0  0  0  0  0  0  0  0  0  0  0
    5.8201    0.7388   16.9064 O   0  0  0  0  0  0  0  0  0  0  0  0
    9.9685    0.8993   21.6771 O   0  0  0  0  0  0  0  0  0  0  0  0
   14.2654   -2.0192   23.6286 Br  0  0  0  0  0  0  0  0  0  0  0  0
    7.1475    5.5899   23.0722 H   0  0  0  0  0  0  0  0  0  0  0  0
    8.8443    5.0095   22.9710 H   0  0  0  0  0  0  0  0  0  0  0  0
    7.7931    4.9697   21.5151 H   0  0  0  0  0  0  0  0  0  0  0  0
    7.7330   -1.0441   20.5447 H   0  0  0  0  0  0  0  0  0  0  0  0
    9.9802   -1.6431   20.8202 H   0  0  0  0  0  0  0  0  0  0  0  0
    9.7580   -2.9007   22.0834 H   0  0  0  0  0  0  0  0  0  0  0  0
    7.9909    1.0794   24.0156 H   0  0  0  0  0  0  0  0  0  0  0  0
    6.6011   -0.5969   22.8044 H   0  0  0  0  0  0  0  0  0  0  0  0
    5.7796    0.9882   23.0030 H   0  0  0  0  0  0  0  0  0  0  0  0
    4.9389    2.1118   21.1125 H   0  0  0  0  0  0  0  0  0  0  0  0
    4.5886    2.2481   18.6832 H   0  0  0  0  0  0  0  0  0  0  0  0
    7.4051   -0.9097   18.1175 H   0  0  0  0  0  0  0  0  0  0  0  0
    8.7030    2.6605   21.7010 H   0  0  0  0  0  0  0  0  0  0  0  0
    8.5586   -1.3515   23.3248 H   0  0  0  0  0  0  0  0  0  0  0  0
    5.7887    1.6490   16.6365 H   0  0  0  0  0  0  0  0  0  0  0  0
  1  7  1  0  0  0  0
  1 21  1  0  0  0  0
  1 22  1  0  0  0  0
  1 23  1  0  0  0  0
  2 10  2  0  0  0  0
  2 14  1  0  0  0  0
  2 24  1  0  0  0  0
  3  8  1  0  0  0  0
  3 16  1  0  0  0  0
  3 19  2  0  0  0  0
  4  5  1  0  0  0  0
  4 16  1  0  0  0  0
  4 25  1  0  0  0  0
  4 26  1  0  0  0  0
  5  6  3  0  0  0  0
  6 20  1  0  0  0  0
  7 15  1  0  0  0  0
  7 17  2  0  0  0  0
  8  9  1  0  0  0  0
  8 15  1  0  0  0  0
  8 27  1  0  0  0  0
  9 10  1  0  0  0  0
  9 28  1  0  0  0  0
  9 29  1  0  0  0  0
 10 11  1  0  0  0  0
 11 12  2  0  0  0  0
 11 30  1  0  0  0  0
 12 13  1  0  0  0  0
 12 31  1  0  0  0  0
 13 14  2  0  0  0  0
 13 18  1  0  0  0  0
 14 32  1  0  0  0  0
 15 33  1  0  0  0  0
 16 34  1  0  0  0  0
 18 35  1  0  0  0  0
M  END
> <compound_name>
AAR-POS-d2a4d1df-16

> <provenance>
{"isomeric_smiles": "CC(=O)N[C@@H](Cc1ccc(cc1)O)C(=O)NCC#CBr", "inchi": "InChI=1S/C14H15BrN2O3/c1-10(18)17-13(14(20)16-8-2-7-15)9-11-3-5-12(19)6-4-11/h3-6,13,19H,8-9H2,1H3,(H,16,20)(H,17,18)/t13-/m0/s1", "inchi_key": "NITJFOXRSHCWBE-ZDUSSCGKSA-N", "fixed_inchi": "InChI=1/C14H15BrN2O3/c1-10(18)17-13(14(20)16-8-2-7-15)9-11-3-5-12(19)6-4-11/h3-6,13,19H,8-9H2,1H3,(H,16,20)(H,17,18)/t13-/m0/s1/f/h16-17H", "fixed_inchikey": "NITJFOXRSHCWBE-ZGYZRRCVNA-N"}

> <data_format>
sdf

$$$$
