LIG(A-305)
  -OEChem-06042511303D

 38 40  0     0  0  0  0  0  0999 V2000
    8.9063    0.4807   21.1095 O   0  0  0  0  0  0  0  0  0  0  0  0
    8.1923   -0.4483   21.4925 C   0  0  0  0  0  0  0  0  0  0  0  0
    7.0263   -0.7842   20.9116 N   0  0  0  0  0  0  0  0  0  0  0  0
    6.4252   -0.0712   19.8577 C   0  0  0  0  0  0  0  0  0  0  0  0
    6.9211   -0.1532   18.5556 C   0  0  0  0  0  0  0  0  0  0  0  0
    6.4181    0.5498   17.5367 N   0  0  0  0  0  0  0  0  0  0  0  0
    5.3771    1.3489   17.7938 C   0  0  0  0  0  0  0  0  0  0  0  0
    4.8042    1.4789   19.0448 C   0  0  0  0  0  0  0  0  0  0  0  0
    5.3373    0.7789   20.1208 C   0  0  0  0  0  0  0  0  0  0  0  0
    4.8144    0.9989   21.5188 C   0  0  0  0  0  0  0  0  0  0  0  0
    8.5344   -1.2783   22.7135 C   0  0  0  0  0  0  0  0  0  0  0  0
    9.7385   -0.6864   23.4004 C   0  0  0  0  0  0  0  0  0  0  0  0
   11.0154   -1.0065   22.9563 C   0  0  0  0  0  0  0  0  0  0  0  0
   12.1345   -0.3325   23.4232 C   0  0  0  0  0  0  0  0  0  0  0  0
   13.5054   -0.7176   22.9181 C   0  0  0  0  0  0  0  0  0  0  0  0
   13.6743   -1.3866   21.5861 C   0  0  0  0  0  0  0  0  0  0  0  0
   13.9143   -2.1577   22.8210 C   0  0  0  0  0  0  0  0  0  0  0  0
   11.9656    0.6755   24.3612 C   0  0  0  0  0  0  0  0  0  0  0  0
   10.7057    0.9806   24.8463 C   0  0  0  0  0  0  0  0  0  0  0  0
    9.5986    0.2946   24.3714 C   0  0  0  0  0  0  0  0  0  0  0  0
    6.5538   -1.5970   21.2525 H   0  0  0  0  0  0  0  0  0  0  0  0
    7.7511   -0.8167   18.3624 H   0  0  0  0  0  0  0  0  0  0  0  0
    4.9615    1.9239   16.9795 H   0  0  0  0  0  0  0  0  0  0  0  0
    3.9472    2.1209   19.1856 H   0  0  0  0  0  0  0  0  0  0  0  0
    5.6126    1.4208   22.1472 H   0  0  0  0  0  0  0  0  0  0  0  0
    3.9653    1.6974   21.4869 H   0  0  0  0  0  0  0  0  0  0  0  0
    4.4837    0.0388   21.9418 H   0  0  0  0  0  0  0  0  0  0  0  0
    7.6804   -1.2803   23.4069 H   0  0  0  0  0  0  0  0  0  0  0  0
    8.7584   -2.3101   22.4048 H   0  0  0  0  0  0  0  0  0  0  0  0
   11.1396   -1.7975   22.2315 H   0  0  0  0  0  0  0  0  0  0  0  0
   14.3118   -0.0227   23.1952 H   0  0  0  0  0  0  0  0  0  0  0  0
   12.7922   -1.6047   20.9660 H   0  0  0  0  0  0  0  0  0  0  0  0
   14.5194   -1.1123   20.9377 H   0  0  0  0  0  0  0  0  0  0  0  0
   13.2107   -2.9489   23.1192 H   0  0  0  0  0  0  0  0  0  0  0  0
   14.9380   -2.4565   23.0909 H   0  0  0  0  0  0  0  0  0  0  0  0
   12.8241    1.2266   24.7157 H   0  0  0  0  0  0  0  0  0  0  0  0
   10.5854    1.7514   25.5932 H   0  0  0  0  0  0  0  0  0  0  0  0
    8.6183    0.5260   24.7609 H   0  0  0  0  0  0  0  0  0  0  0  0
  1  2  2  0  0  0  0
  2  3  1  0  0  0  0
  2 11  1  0  0  0  0
  3  4  1  0  0  0  0
  3 21  1  0  0  0  0
  4  5  2  0  0  0  0
  4  9  1  0  0  0  0
  5  6  1  0  0  0  0
  5 22  1  0  0  0  0
  6  7  2  0  0  0  0
  7  8  1  0  0  0  0
  7 23  1  0  0  0  0
  8  9  2  0  0  0  0
  8 24  1  0  0  0  0
  9 10  1  0  0  0  0
 10 25  1  0  0  0  0
 10 26  1  0  0  0  0
 10 27  1  0  0  0  0
 11 12  1  0  0  0  0
 11 28  1  0  0  0  0
 11 29  1  0  0  0  0
 12 13  2  0  0  0  0
 12 20  1  0  0  0  0
 13 14  1  0  0  0  0
 13 30  1  0  0  0  0
 14 15  1  0  0  0  0
 14 18  2  0  0  0  0
 15 16  1  0  0  0  0
 15 17  1  0  0  0  0
 15 31  1  0  0  0  0
 16 17  1  0  0  0  0
 16 32  1  0  0  0  0
 16 33  1  0  0  0  0
 17 34  1  0  0  0  0
 17 35  1  0  0  0  0
 18 19  1  0  0  0  0
 18 36  1  0  0  0  0
 19 20  2  0  0  0  0
 19 37  1  0  0  0  0
 20 38  1  0  0  0  0
M  END
> <compound_name>
ALP-POS-95b75b4d-4

> <provenance>
{"isomeric_smiles": "Cc1ccncc1NC(=O)Cc2cccc(c2)C3CC3", "inchi": "InChI=1S/C17H18N2O/c1-12-7-8-18-11-16(12)19-17(20)10-13-3-2-4-15(9-13)14-5-6-14/h2-4,7-9,11,14H,5-6,10H2,1H3,(H,19,20)", "inchi_key": "PTTAFUMPUWHBTC-UHFFFAOYSA-N", "fixed_inchi": "InChI=1/C17H18N2O/c1-12-7-8-18-11-16(12)19-17(20)10-13-3-2-4-15(9-13)14-5-6-14/h2-4,7-9,11,14H,5-6,10H2,1H3,(H,19,20)/f/h19H", "fixed_inchikey": "PTTAFUMPUWHBTC-LILDFLRNNA-N"}

> <data_format>
sdf

$$$$
