LIG(A-306)
  -OEChem-06042511413D

 54 58  0     1  0  0  0  0  0999 V2000
    9.1237    1.3258   21.2381 O   0  0  0  0  0  0  0  0  0  0  0  0
    8.6665    0.2777   21.6630 C   0  0  0  0  0  0  0  0  0  0  0  0
    7.6047   -0.4333   21.1178 N   0  0  0  0  0  0  0  0  0  0  0  0
    6.8064    0.0131   19.9783 C   0  0  0  0  0  0  0  0  0  0  0  0
    5.6733    0.8535   20.2108 C   0  0  0  0  0  0  0  0  0  0  0  0
    5.1564    1.1683   21.4945 C   0  0  0  0  0  0  0  0  0  0  0  0
    4.0853    2.0030   21.6350 C   0  0  0  0  0  0  0  0  0  0  0  0
    3.4742    2.5689   20.5220 C   0  0  0  0  0  0  0  0  0  0  0  0
    3.9241    2.2841   19.2634 C   0  0  0  0  0  0  0  0  0  0  0  0
    5.0262    1.4166   19.0698 C   0  0  0  0  0  0  0  0  0  0  0  0
    5.5450    1.0868   17.7879 C   0  0  0  0  0  0  0  0  0  0  0  0
    6.6053    0.3105   17.5858 N   0  0  0  0  0  0  0  0  0  0  0  0
    7.2145   -0.1973   18.6671 C   0  0  0  0  0  0  0  0  0  0  0  0
    7.4591   -1.7138   21.6785 C   0  0  0  0  0  0  0  0  0  0  0  0
    6.5553   -2.4796   21.4390 O   0  0  0  0  0  0  0  0  0  0  0  0
    8.6209   -1.9200   22.6222 C   0  0  0  0  0  0  0  0  0  0  0  0
    9.1661   -0.5025   22.8860 C   0  0  1  0  0  0  0  0  0  0  0  0
   10.6914   -0.3954   22.9901 C   0  0  0  0  0  0  0  0  0  0  0  0
   11.5354   -1.1934   22.2129 C   0  0  0  0  0  0  0  0  0  0  0  0
   12.8870   -0.9072   22.1789 C   0  0  0  0  0  0  0  0  0  0  0  0
   13.9207   -1.8313   21.1250 Cl  0  0  0  0  0  0  0  0  0  0  0  0
   13.4335    0.1179   22.9118 C   0  0  0  0  0  0  0  0  0  0  0  0
   12.6064    0.8758   23.7198 C   0  0  0  0  0  0  0  0  0  0  0  0
   11.2409    0.6335   23.7751 C   0  0  0  0  0  0  0  0  0  0  0  0
   10.3921    1.4788   24.6975 C   0  0  0  0  0  0  0  0  0  0  0  0
    8.4740    0.1499   24.1145 C   0  0  0  0  0  0  0  0  0  0  0  0
    8.9790    1.5100   24.2921 N   0  3  1  0  0  0  0  0  0  0  0  0
    8.1862    2.3905   25.1457 C   0  0  0  0  0  0  0  0  0  0  0  0
    7.3492    3.4051   24.3860 C   0  0  0  0  0  0  0  0  0  0  0  0
    6.3354    3.8829   24.8887 O   0  0  0  0  0  0  0  0  0  0  0  0
    7.7566    3.7263   23.1614 N   0  0  0  0  0  0  0  0  0  0  0  0
    6.9711    4.5674   22.2778 C   0  0  0  0  0  0  0  0  0  0  0  0
    5.6171    0.7413   22.3731 H   0  0  0  0  0  0  0  0  0  0  0  0
    3.7084    2.2262   22.6221 H   0  0  0  0  0  0  0  0  0  0  0  0
    2.6372    3.2388   20.6529 H   0  0  0  0  0  0  0  0  0  0  0  0
    3.4343    2.7252   18.4079 H   0  0  0  0  0  0  0  0  0  0  0  0
    5.0451    1.4937   16.9214 H   0  0  0  0  0  0  0  0  0  0  0  0
    8.0860   -0.8148   18.5070 H   0  0  0  0  0  0  0  0  0  0  0  0
    8.2819   -2.3860   23.5592 H   0  0  0  0  0  0  0  0  0  0  0  0
    9.3917   -2.5517   22.1565 H   0  0  0  0  0  0  0  0  0  0  0  0
   11.1369   -2.0222   21.6467 H   0  0  0  0  0  0  0  0  0  0  0  0
   14.4915    0.3284   22.8578 H   0  0  0  0  0  0  0  0  0  0  0  0
   13.0298    1.6692   24.3179 H   0  0  0  0  0  0  0  0  0  0  0  0
   10.4581    1.0657   25.7149 H   0  0  0  0  0  0  0  0  0  0  0  0
   10.7830    2.5070   24.6931 H   0  0  0  0  0  0  0  0  0  0  0  0
    7.3869    0.1811   23.9494 H   0  0  0  0  0  0  0  0  0  0  0  0
    8.6911   -0.4425   25.0155 H   0  0  0  0  0  0  0  0  0  0  0  0
    8.9666    1.9267   23.3832 H   0  0  0  0  0  0  0  0  0  0  0  0
    7.5096    1.7681   25.7497 H   0  0  0  0  0  0  0  0  0  0  0  0
    8.8723    2.9369   25.8095 H   0  0  0  0  0  0  0  0  0  0  0  0
    8.6355    3.3756   22.8381 H   0  0  0  0  0  0  0  0  0  0  0  0
    7.5037    4.6961   21.3240 H   0  0  0  0  0  0  0  0  0  0  0  0
    5.9958    4.0939   22.0921 H   0  0  0  0  0  0  0  0  0  0  0  0
    6.8181    5.5503   22.7476 H   0  0  0  0  0  0  0  0  0  0  0  0
  1  2  2  0  0  0  0
  2  3  1  0  0  0  0
  2 17  1  0  0  0  0
  3  4  1  0  0  0  0
  3 14  1  0  0  0  0
  4  5  2  0  0  0  0
  4 13  1  0  0  0  0
  5  6  1  0  0  0  0
  5 10  1  0  0  0  0
  6  7  2  0  0  0  0
  6 33  1  0  0  0  0
  7  8  1  0  0  0  0
  7 34  1  0  0  0  0
  8  9  2  0  0  0  0
  8 35  1  0  0  0  0
  9 10  1  0  0  0  0
  9 36  1  0  0  0  0
 10 11  2  0  0  0  0
 11 12  1  0  0  0  0
 11 37  1  0  0  0  0
 12 13  2  0  0  0  0
 13 38  1  0  0  0  0
 14 15  2  0  0  0  0
 14 16  1  0  0  0  0
 16 17  1  0  0  0  0
 16 39  1  0  0  0  0
 16 40  1  0  0  0  0
 17 18  1  0  0  0  0
 17 26  1  0  0  0  0
 18 19  2  0  0  0  0
 18 24  1  0  0  0  0
 19 20  1  0  0  0  0
 19 41  1  0  0  0  0
 20 21  1  0  0  0  0
 20 22  2  0  0  0  0
 22 23  1  0  0  0  0
 22 42  1  0  0  0  0
 23 24  2  0  0  0  0
 23 43  1  0  0  0  0
 24 25  1  0  0  0  0
 25 27  1  0  0  0  0
 25 44  1  0  0  0  0
 25 45  1  0  0  0  0
 26 27  1  0  0  0  0
 26 46  1  0  0  0  0
 26 47  1  0  0  0  0
 27 28  1  0  0  0  0
 27 48  1  0  0  0  0
 28 29  1  0  0  0  0
 28 49  1  0  0  0  0
 28 50  1  0  0  0  0
 29 30  2  0  0  0  0
 29 31  1  0  0  0  0
 31 32  1  0  0  0  0
 31 51  1  0  0  0  0
 32 52  1  0  0  0  0
 32 53  1  0  0  0  0
 32 54  1  0  0  0  0
M  CHG  1  27   1
M  END
> <compound_name>
MAT-POS-1bed62cf-3

> <provenance>
{"isomeric_smiles": "CNC(=O)C[N@H+]1Cc2ccc(cc2[C@]3(C1)CC(=O)N(C3=O)c4cncc5c4cccc5)Cl", "inchi": "InChI=1S/C24H21ClN4O3/c1-26-21(30)13-28-12-16-6-7-17(25)8-19(16)24(14-28)9-22(31)29(23(24)32)20-11-27-10-15-4-2-3-5-18(15)20/h2-8,10-11H,9,12-14H2,1H3,(H,26,30)/p+1/t24-/m1/s1", "inchi_key": "UQYRJVFIAXFIFV-XMMPIXPASA-O", "fixed_inchi": "InChI=1/C24H21ClN4O3/c1-26-21(30)13-28-12-16-6-7-17(25)8-19(16)24(14-28)9-22(31)29(23(24)32)20-11-27-10-15-4-2-3-5-18(15)20/h2-8,10-11H,9,12-14H2,1H3,(H,26,30)/p+1/t24-/m1/s1/fC24H22ClN4O3/h26,28H/q+1", "fixed_inchikey": "UQYRJVFIAXFIFV-XTPSUXNHNA-O"}

> <data_format>
sdf

$$$$
