LIG(A-306)
  -OEChem-06042511383D

 37 39  0     1  0  0  0  0  0999 V2000
   13.7739   -1.7544   21.6348 Cl  0  0  0  0  0  0  0  0  0  0  0  0
   12.5047   -0.8599   22.4121 C   0  0  0  0  0  0  0  0  0  0  0  0
   12.7939    0.1559   23.3135 C   0  0  0  0  0  0  0  0  0  0  0  0
   14.4226    0.6883   23.5651 Cl  0  0  0  0  0  0  0  0  0  0  0  0
   11.7663    0.8231   23.9526 C   0  0  0  0  0  0  0  0  0  0  0  0
   10.4537    0.4925   23.6733 C   0  0  0  0  0  0  0  0  0  0  0  0
   11.1900   -1.1765   22.1248 C   0  0  0  0  0  0  0  0  0  0  0  0
   10.1475   -0.5013   22.7529 C   0  0  0  0  0  0  0  0  0  0  0  0
    8.7048   -0.9029   22.4709 C   0  0  2  0  0  0  0  0  0  0  0  0
    8.5521   -2.4347   22.5298 C   0  0  0  0  0  0  0  0  0  0  0  0
    8.2031   -0.0809   21.2729 C   0  0  0  0  0  0  0  0  0  0  0  0
    8.7351    0.9835   20.9559 O   0  0  0  0  0  0  0  0  0  0  0  0
    7.0847   -0.5539   20.6564 N   0  0  0  0  0  0  0  0  0  0  0  0
    6.3392    0.0504   19.6271 C   0  0  0  0  0  0  0  0  0  0  0  0
    5.2773    0.9363   19.9881 C   0  0  0  0  0  0  0  0  0  0  0  0
    4.8889    1.1999   21.3285 C   0  0  0  0  0  0  0  0  0  0  0  0
    3.8898    2.0887   21.6083 C   0  0  0  0  0  0  0  0  0  0  0  0
    3.2294    2.7570   20.5838 C   0  0  0  0  0  0  0  0  0  0  0  0
    3.5619    2.5315   19.2794 C   0  0  0  0  0  0  0  0  0  0  0  0
    4.5948    1.6176   18.9446 C   0  0  0  0  0  0  0  0  0  0  0  0
    5.0123    1.3659   17.6141 C   0  0  0  0  0  0  0  0  0  0  0  0
    5.9973    0.5411   17.2832 N   0  0  0  0  0  0  0  0  0  0  0  0
    6.6317   -0.0952   18.2737 C   0  0  0  0  0  0  0  0  0  0  0  0
   11.9883    1.6007   24.6684 H   0  0  0  0  0  0  0  0  0  0  0  0
    9.6544    1.0146   24.1782 H   0  0  0  0  0  0  0  0  0  0  0  0
   10.9703   -1.9536   21.4076 H   0  0  0  0  0  0  0  0  0  0  0  0
    8.1308   -0.5286   23.3313 H   0  0  0  0  0  0  0  0  0  0  0  0
    7.5065   -2.7077   22.3243 H   0  0  0  0  0  0  0  0  0  0  0  0
    9.2065   -2.8976   21.7765 H   0  0  0  0  0  0  0  0  0  0  0  0
    8.8346   -2.7930   23.5307 H   0  0  0  0  0  0  0  0  0  0  0  0
    6.7517   -1.4414   20.9748 H   0  0  0  0  0  0  0  0  0  0  0  0
    5.3903    0.6905   22.1380 H   0  0  0  0  0  0  0  0  0  0  0  0
    3.6106    2.2740   22.6350 H   0  0  0  0  0  0  0  0  0  0  0  0
    2.4458    3.4611   20.8221 H   0  0  0  0  0  0  0  0  0  0  0  0
    3.0342    3.0533   18.4948 H   0  0  0  0  0  0  0  0  0  0  0  0
    4.4948    1.8793   16.8172 H   0  0  0  0  0  0  0  0  0  0  0  0
    7.4294   -0.7715   18.0040 H   0  0  0  0  0  0  0  0  0  0  0  0
  1  2  1  0  0  0  0
  2  3  2  0  0  0  0
  2  7  1  0  0  0  0
  3  4  1  0  0  0  0
  3  5  1  0  0  0  0
  5  6  2  0  0  0  0
  5 24  1  0  0  0  0
  6  8  1  0  0  0  0
  6 25  1  0  0  0  0
  7  8  2  0  0  0  0
  7 26  1  0  0  0  0
  8  9  1  0  0  0  0
  9 10  1  0  0  0  0
  9 11  1  0  0  0  0
  9 27  1  0  0  0  0
 10 28  1  0  0  0  0
 10 29  1  0  0  0  0
 10 30  1  0  0  0  0
 11 12  2  0  0  0  0
 11 13  1  0  0  0  0
 13 14  1  0  0  0  0
 13 31  1  0  0  0  0
 14 15  2  0  0  0  0
 14 23  1  0  0  0  0
 15 16  1  0  0  0  0
 15 20  1  0  0  0  0
 16 17  2  0  0  0  0
 16 32  1  0  0  0  0
 17 18  1  0  0  0  0
 17 33  1  0  0  0  0
 18 19  2  0  0  0  0
 18 34  1  0  0  0  0
 19 20  1  0  0  0  0
 19 35  1  0  0  0  0
 20 21  2  0  0  0  0
 21 22  1  0  0  0  0
 21 36  1  0  0  0  0
 22 23  2  0  0  0  0
 23 37  1  0  0  0  0
M  END
> <compound_name>
MAT-POS-fce787c2-3

> <provenance>
{"isomeric_smiles": "C[C@@H](c1ccc(c(c1)Cl)Cl)C(=O)Nc2cncc3c2cccc3", "inchi": "InChI=1S/C18H14Cl2N2O/c1-11(12-6-7-15(19)16(20)8-12)18(23)22-17-10-21-9-13-4-2-3-5-14(13)17/h2-11H,1H3,(H,22,23)/t11-/m0/s1", "inchi_key": "MTMXPPBZDNZMGK-NSHDSACASA-N", "fixed_inchi": "InChI=1/C18H14Cl2N2O/c1-11(12-6-7-15(19)16(20)8-12)18(23)22-17-10-21-9-13-4-2-3-5-14(13)17/h2-11H,1H3,(H,22,23)/t11-/m0/s1/f/h22H", "fixed_inchikey": "MTMXPPBZDNZMGK-AHQGMKOINA-N"}

> <data_format>
sdf

$$$$
