LIG(A-305)
  -OEChem-06042511353D

 29 30  0     0  0  0  0  0  0999 V2000
    9.1789   -4.8808   26.5268 C   0  0  0  0  0  0  0  0  0  0  0  0
   10.4208   -4.7298   25.8116 C   0  0  0  0  0  0  0  0  0  0  0  0
   10.6618   -3.3209   25.2596 C   0  0  0  0  0  0  0  0  0  0  0  0
    9.7147   -1.5558   24.2357 C   0  0  0  0  0  0  0  0  0  0  0  0
   11.0936   -1.1989   23.6625 C   0  0  0  0  0  0  0  0  0  0  0  0
   11.9988   -0.0919   24.1953 C   0  0  0  0  0  0  0  0  0  0  0  0
   13.2126   -0.0400   23.4321 C   0  0  0  0  0  0  0  0  0  0  0  0
   11.7374   -1.8399   22.5554 C   0  0  0  0  0  0  0  0  0  0  0  0
    8.3388   -2.8907   25.3140 C   0  0  0  0  0  0  0  0  0  0  0  0
    8.0798   -4.3267   25.7780 C   0  0  0  0  0  0  0  0  0  0  0  0
    9.5547   -2.7438   24.5348 N   0  3  0  0  0  0  0  0  0  0  0  0
    9.2971   -4.2848   27.7958 O   0  0  0  0  0  0  0  0  0  0  0  0
   13.1814   -1.1690   22.2741 S   0  0  0  0  0  0  0  0  0  0  0  0
    8.9917   -5.9562   26.6621 H   0  0  0  0  0  0  0  0  0  0  0  0
   11.2453   -4.9775   26.4964 H   0  0  0  0  0  0  0  0  0  0  0  0
   10.4205   -5.4353   24.9677 H   0  0  0  0  0  0  0  0  0  0  0  0
   10.8947   -2.6593   26.1069 H   0  0  0  0  0  0  0  0  0  0  0  0
   11.5260   -3.3653   24.5806 H   0  0  0  0  0  0  0  0  0  0  0  0
    9.5587   -0.9539   25.1431 H   0  0  0  0  0  0  0  0  0  0  0  0
    8.9563   -1.2901   23.4846 H   0  0  0  0  0  0  0  0  0  0  0  0
   11.7607    0.5571   25.0251 H   0  0  0  0  0  0  0  0  0  0  0  0
   14.0256    0.6496   23.6050 H   0  0  0  0  0  0  0  0  0  0  0  0
   11.3171   -2.6571   21.9878 H   0  0  0  0  0  0  0  0  0  0  0  0
    7.4883   -2.5656   24.6966 H   0  0  0  0  0  0  0  0  0  0  0  0
    8.4146   -2.2462   26.2022 H   0  0  0  0  0  0  0  0  0  0  0  0
    7.1827   -4.3334   26.4145 H   0  0  0  0  0  0  0  0  0  0  0  0
    7.9059   -4.9557   24.8926 H   0  0  0  0  0  0  0  0  0  0  0  0
    9.4342   -3.2895   23.7055 H   0  0  0  0  0  0  0  0  0  0  0  0
    8.8838   -4.8398   28.4466 H   0  0  0  0  0  0  0  0  0  0  0  0
  1  2  1  0  0  0  0
  1 10  1  0  0  0  0
  1 12  1  0  0  0  0
  1 14  1  0  0  0  0
  2  3  1  0  0  0  0
  2 15  1  0  0  0  0
  2 16  1  0  0  0  0
  3 11  1  0  0  0  0
  3 17  1  0  0  0  0
  3 18  1  0  0  0  0
  4  5  1  0  0  0  0
  4 11  1  0  0  0  0
  4 19  1  0  0  0  0
  4 20  1  0  0  0  0
  5  6  1  0  0  0  0
  5  8  2  0  0  0  0
  6  7  2  0  0  0  0
  6 21  1  0  0  0  0
  7 13  1  0  0  0  0
  7 22  1  0  0  0  0
  8 13  1  0  0  0  0
  8 23  1  0  0  0  0
  9 10  1  0  0  0  0
  9 11  1  0  0  0  0
  9 24  1  0  0  0  0
  9 25  1  0  0  0  0
 10 26  1  0  0  0  0
 10 27  1  0  0  0  0
 11 28  1  0  0  0  0
 12 29  1  0  0  0  0
M  CHG  1  11   1
M  END
> <compound_name>
AAR-POS-d2a4d1df-7

> <provenance>
{"isomeric_smiles": "c1cscc1C[NH+]2CCC(CC2)O", "inchi": "InChI=1S/C10H15NOS/c12-10-1-4-11(5-2-10)7-9-3-6-13-8-9/h3,6,8,10,12H,1-2,4-5,7H2/p+1", "inchi_key": "JQJVNJKLFUBEBG-UHFFFAOYSA-O", "fixed_inchi": "InChI=1/C10H15NOS/c12-10-1-4-11(5-2-10)7-9-3-6-13-8-9/h3,6,8,10,12H,1-2,4-5,7H2/p+1/fC10H16NOS/h11H/q+1", "fixed_inchikey": "JQJVNJKLFUBEBG-LPABOVSFNA-O"}

> <data_format>
sdf

$$$$
