LIG(A-306)
  -OEChem-06042511403D

 45 48  0     1  0  0  0  0  0999 V2000
   14.1232   -1.7076   21.0956 Cl  0  0  0  0  0  0  0  0  0  0  0  0
   12.9523   -0.8877   22.0898 C   0  0  0  0  0  0  0  0  0  0  0  0
   11.6163   -1.2367   21.9859 C   0  0  0  0  0  0  0  0  0  0  0  0
   13.3693    0.1273   22.9208 C   0  0  0  0  0  0  0  0  0  0  0  0
   12.4324    0.7903   23.6919 C   0  0  0  0  0  0  0  0  0  0  0  0
   11.0804    0.4532   23.6311 C   0  0  0  0  0  0  0  0  0  0  0  0
   10.1355    1.0751   24.6372 C   0  0  0  0  0  0  0  0  0  0  0  0
    8.7155    0.8710   24.3144 N   0  0  0  0  0  0  0  0  0  0  0  0
    7.7204    1.7770   24.5375 C   0  0  0  0  0  0  0  0  0  0  0  0
    6.5514    1.4409   24.4687 O   0  0  0  0  0  0  0  0  0  0  0  0
    8.1004    3.2020   24.8515 C   0  0  0  0  0  0  0  0  0  0  0  0
   10.6643   -0.5468   22.7391 C   0  0  0  0  0  0  0  0  0  0  0  0
    9.1833   -0.8289   22.5692 C   0  0  1  0  0  0  0  0  0  0  0  0
    8.4305   -0.4929   23.8574 C   0  0  0  0  0  0  0  0  0  0  0  0
    8.5981   -0.0528   21.3874 C   0  0  0  0  0  0  0  0  0  0  0  0
    9.0900    1.0022   20.9873 O   0  0  0  0  0  0  0  0  0  0  0  0
    7.4961   -0.6059   20.8315 N   0  0  0  0  0  0  0  0  0  0  0  0
    6.7309   -0.0929   19.7646 C   0  0  0  0  0  0  0  0  0  0  0  0
    5.6229    0.7641   20.0598 C   0  0  0  0  0  0  0  0  0  0  0  0
    5.1661    1.0390   21.3748 C   0  0  0  0  0  0  0  0  0  0  0  0
    4.1301    1.9039   21.5930 C   0  0  0  0  0  0  0  0  0  0  0  0
    3.4879    2.5249   20.5291 C   0  0  0  0  0  0  0  0  0  0  0  0
    3.8838    2.2850   19.2430 C   0  0  0  0  0  0  0  0  0  0  0  0
    4.9618    1.4051   18.9729 C   0  0  0  0  0  0  0  0  0  0  0  0
    5.4346    1.1442   17.6658 C   0  0  0  0  0  0  0  0  0  0  0  0
    6.4526    0.3422   17.3876 N   0  0  0  0  0  0  0  0  0  0  0  0
    7.0688   -0.2568   18.4175 C   0  0  0  0  0  0  0  0  0  0  0  0
   11.3128   -2.0369   21.3271 H   0  0  0  0  0  0  0  0  0  0  0  0
   14.4127    0.4018   22.9697 H   0  0  0  0  0  0  0  0  0  0  0  0
   12.7529    1.5823   24.3524 H   0  0  0  0  0  0  0  0  0  0  0  0
   10.3354    0.6306   25.6233 H   0  0  0  0  0  0  0  0  0  0  0  0
   10.3314    2.1568   24.6761 H   0  0  0  0  0  0  0  0  0  0  0  0
    7.1895    3.8031   24.9892 H   0  0  0  0  0  0  0  0  0  0  0  0
    8.6989    3.2270   25.7742 H   0  0  0  0  0  0  0  0  0  0  0  0
    8.6905    3.6157   24.0205 H   0  0  0  0  0  0  0  0  0  0  0  0
    9.0573   -1.9032   22.3693 H   0  0  0  0  0  0  0  0  0  0  0  0
    8.7332   -1.2020   24.6420 H   0  0  0  0  0  0  0  0  0  0  0  0
    7.3501   -0.5886   23.6737 H   0  0  0  0  0  0  0  0  0  0  0  0
    7.1903   -1.4749   21.2204 H   0  0  0  0  0  0  0  0  0  0  0  0
    5.6437    0.5580   22.2155 H   0  0  0  0  0  0  0  0  0  0  0  0
    3.8073    2.1067   22.6035 H   0  0  0  0  0  0  0  0  0  0  0  0
    2.6691    3.2029   20.7197 H   0  0  0  0  0  0  0  0  0  0  0  0
    3.3708    2.7700   18.4257 H   0  0  0  0  0  0  0  0  0  0  0  0
    4.9340    1.6297   16.8412 H   0  0  0  0  0  0  0  0  0  0  0  0
    7.8912   -0.9182   18.1882 H   0  0  0  0  0  0  0  0  0  0  0  0
  1  2  1  0  0  0  0
  2  3  2  0  0  0  0
  2  4  1  0  0  0  0
  3 12  1  0  0  0  0
  3 28  1  0  0  0  0
  4  5  2  0  0  0  0
  4 29  1  0  0  0  0
  5  6  1  0  0  0  0
  5 30  1  0  0  0  0
  6  7  1  0  0  0  0
  6 12  2  0  0  0  0
  7  8  1  0  0  0  0
  7 31  1  0  0  0  0
  7 32  1  0  0  0  0
  8  9  1  0  0  0  0
  8 14  1  0  0  0  0
  9 10  2  0  0  0  0
  9 11  1  0  0  0  0
 11 33  1  0  0  0  0
 11 34  1  0  0  0  0
 11 35  1  0  0  0  0
 12 13  1  0  0  0  0
 13 14  1  0  0  0  0
 13 15  1  0  0  0  0
 13 36  1  0  0  0  0
 14 37  1  0  0  0  0
 14 38  1  0  0  0  0
 15 16  2  0  0  0  0
 15 17  1  0  0  0  0
 17 18  1  0  0  0  0
 17 39  1  0  0  0  0
 18 19  2  0  0  0  0
 18 27  1  0  0  0  0
 19 20  1  0  0  0  0
 19 24  1  0  0  0  0
 20 21  2  0  0  0  0
 20 40  1  0  0  0  0
 21 22  1  0  0  0  0
 21 41  1  0  0  0  0
 22 23  2  0  0  0  0
 22 42  1  0  0  0  0
 23 24  1  0  0  0  0
 23 43  1  0  0  0  0
 24 25  2  0  0  0  0
 25 26  1  0  0  0  0
 25 44  1  0  0  0  0
 26 27  2  0  0  0  0
 27 45  1  0  0  0  0
M  END
> <compound_name>
MAT-POS-dd3ad2b5-2

> <provenance>
{"isomeric_smiles": "CC(=O)N1Cc2ccc(cc2[C@@H](C1)C(=O)Nc3cncc4c3cccc4)Cl", "inchi": "InChI=1S/C21H18ClN3O2/c1-13(26)25-11-15-6-7-16(22)8-18(15)19(12-25)21(27)24-20-10-23-9-14-4-2-3-5-17(14)20/h2-10,19H,11-12H2,1H3,(H,24,27)/t19-/m1/s1", "inchi_key": "VTQUGRCHBZGAGI-LJQANCHMSA-N", "fixed_inchi": "InChI=1/C21H18ClN3O2/c1-13(26)25-11-15-6-7-16(22)8-18(15)19(12-25)21(27)24-20-10-23-9-14-4-2-3-5-17(14)20/h2-10,19H,11-12H2,1H3,(H,24,27)/t19-/m1/s1/f/h24H", "fixed_inchikey": "VTQUGRCHBZGAGI-KITPJTELNA-N"}

> <data_format>
sdf

$$$$
