LIG(A-305)
  -OEChem-06042511353D

 35 37  0     1  0  0  0  0  0999 V2000
    6.6883    0.3038   17.7988 N   0  0  0  0  0  0  0  0  0  0  0  0
    5.8775    0.6947   20.4599 C   0  0  0  0  0  0  0  0  0  0  0  0
   13.8678   -1.7206   23.7131 C   0  0  0  0  0  0  0  0  0  0  0  0
   11.2957   -0.0515   22.6494 C   0  0  0  0  0  0  0  0  0  0  0  0
    5.0935    1.1177   19.3919 C   0  0  0  0  0  0  0  0  0  0  0  0
    9.0366    0.2515   21.5886 C   0  0  0  0  0  0  0  0  0  0  0  0
    7.0875    0.0387   20.1547 C   0  0  0  0  0  0  0  0  0  0  0  0
    7.4434   -0.1243   18.8147 C   0  0  0  0  0  0  0  0  0  0  0  0
   12.0008    0.0594   24.0033 C   0  0  0  0  0  0  0  0  0  0  0  0
   12.6117   -2.0476   22.9702 C   0  0  2  0  0  0  0  0  0  0  0  0
   12.1436   -1.0725   21.8883 C   0  0  0  0  0  0  0  0  0  0  0  0
   12.5278   -1.3516   24.2642 C   0  0  1  0  0  0  0  0  0  0  0  0
    5.4587    0.9796   21.8819 C   0  0  0  0  0  0  0  0  0  0  0  0
    7.9296   -0.4074   21.2006 N   0  0  0  0  0  0  0  0  0  0  0  0
    9.4126    1.2996   21.0786 O   0  0  0  0  0  0  0  0  0  0  0  0
    9.8077   -0.4025   22.7205 C   0  0  0  0  0  0  0  0  0  0  0  0
    5.5294    0.9048   18.0989 C   0  0  0  0  0  0  0  0  0  0  0  0
   14.4570   -2.5222   24.1825 H   0  0  0  0  0  0  0  0  0  0  0  0
   14.5450   -0.9396   23.3372 H   0  0  0  0  0  0  0  0  0  0  0  0
   11.3912    0.9173   22.1373 H   0  0  0  0  0  0  0  0  0  0  0  0
    4.1493    1.6098   19.5727 H   0  0  0  0  0  0  0  0  0  0  0  0
    8.3752   -0.6210   18.5879 H   0  0  0  0  0  0  0  0  0  0  0  0
   12.8281    0.7828   23.9550 H   0  0  0  0  0  0  0  0  0  0  0  0
   11.2932    0.3637   24.7886 H   0  0  0  0  0  0  0  0  0  0  0  0
   12.2929   -3.0979   22.8983 H   0  0  0  0  0  0  0  0  0  0  0  0
   13.0024   -0.5841   21.4044 H   0  0  0  0  0  0  0  0  0  0  0  0
   11.5412   -1.5919   21.1284 H   0  0  0  0  0  0  0  0  0  0  0  0
   12.1486   -1.8928   25.1436 H   0  0  0  0  0  0  0  0  0  0  0  0
    4.5071    1.5313   21.8809 H   0  0  0  0  0  0  0  0  0  0  0  0
    5.3315    0.0308   22.4237 H   0  0  0  0  0  0  0  0  0  0  0  0
    6.2323    1.5842   22.3778 H   0  0  0  0  0  0  0  0  0  0  0  0
    7.6900   -1.2545   21.6750 H   0  0  0  0  0  0  0  0  0  0  0  0
    9.4016   -0.0524   23.6809 H   0  0  0  0  0  0  0  0  0  0  0  0
    9.6925   -1.4942   22.6497 H   0  0  0  0  0  0  0  0  0  0  0  0
    4.9023    1.2407   17.2863 H   0  0  0  0  0  0  0  0  0  0  0  0
  1  8  1  0  0  0  0
  1 17  2  0  0  0  0
  2  5  2  0  0  0  0
  2  7  1  0  0  0  0
  2 13  1  0  0  0  0
  3 10  1  0  0  0  0
  3 12  1  0  0  0  0
  3 18  1  0  0  0  0
  3 19  1  0  0  0  0
  4  9  1  0  0  0  0
  4 11  1  0  0  0  0
  4 16  1  0  0  0  0
  4 20  1  0  0  0  0
  5 17  1  0  0  0  0
  5 21  1  0  0  0  0
  6 14  1  0  0  0  0
  6 15  2  0  0  0  0
  6 16  1  0  0  0  0
  7  8  2  0  0  0  0
  7 14  1  0  0  0  0
  8 22  1  0  0  0  0
  9 12  1  0  0  0  0
  9 23  1  0  0  0  0
  9 24  1  0  0  0  0
 10 11  1  0  0  0  0
 10 12  1  0  0  0  0
 10 25  1  0  0  0  0
 11 26  1  0  0  0  0
 11 27  1  0  0  0  0
 12 28  1  0  0  0  0
 13 29  1  0  0  0  0
 13 30  1  0  0  0  0
 13 31  1  0  0  0  0
 14 32  1  0  0  0  0
 16 33  1  0  0  0  0
 16 34  1  0  0  0  0
 17 35  1  0  0  0  0
M  END
> <compound_name>
MAT-POS-590ac91e-23

> <provenance>
{"isomeric_smiles": "Cc1ccncc1NC(=O)CC2C[C@H]3C[C@H]3C2", "inchi": "InChI=1S/C14H18N2O/c1-9-2-3-15-8-13(9)16-14(17)6-10-4-11-7-12(11)5-10/h2-3,8,10-12H,4-7H2,1H3,(H,16,17)/t10-,11+,12-", "inchi_key": "WEHZCBNACMTKKE-ZSBIGDGJSA-N", "fixed_inchi": "InChI=1/C14H18N2O/c1-9-2-3-15-8-13(9)16-14(17)6-10-4-11-7-12(11)5-10/h2-3,8,10-12H,4-7H2,1H3,(H,16,17)/t10-,11+,12-/f/h16H", "fixed_inchikey": "WEHZCBNACMTKKE-BHBKUSHHNA-N"}

> <data_format>
sdf

$$$$
