LIG(A-305)
  -OEChem-06042511303D

 30 31  0     1  0  0  0  0  0999 V2000
   11.8052    0.8721   23.7563 N   0  0  0  0  0  0  0  0  0  0  0  0
   10.9912    0.1761   23.3742 C   0  0  0  0  0  0  0  0  0  0  0  0
    9.9163   -0.6580   22.8101 C   0  0  1  0  0  0  0  0  0  0  0  0
   10.5364   -1.9789   22.3400 C   0  0  0  0  0  0  0  0  0  0  0  0
   10.5054   -2.8150   23.4920 O   0  0  0  0  0  0  0  0  0  0  0  0
    9.2444   -2.5681   24.1150 C   0  0  0  0  0  0  0  0  0  0  0  0
    8.9603   -1.0851   23.9561 C   0  0  0  0  0  0  0  0  0  0  0  0
    9.3053    0.1651   21.6592 C   0  0  0  0  0  0  0  0  0  0  0  0
   10.0263    0.9052   21.0153 O   0  0  0  0  0  0  0  0  0  0  0  0
    7.9723    0.1800   21.5481 N   0  0  0  0  0  0  0  0  0  0  0  0
    7.1833    0.3411   20.3851 C   0  0  0  0  0  0  0  0  0  0  0  0
    5.8273    0.6570   20.5371 C   0  0  0  0  0  0  0  0  0  0  0  0
    5.2142    0.8938   21.8931 C   0  0  0  0  0  0  0  0  0  0  0  0
    7.6804    0.1552   19.0901 C   0  0  0  0  0  0  0  0  0  0  0  0
    6.9534    0.3303   17.9821 N   0  0  0  0  0  0  0  0  0  0  0  0
    5.6784    0.6972   18.1421 C   0  0  0  0  0  0  0  0  0  0  0  0
    5.0813    0.8560   19.3781 C   0  0  0  0  0  0  0  0  0  0  0  0
    9.9438   -2.4183   21.5242 H   0  0  0  0  0  0  0  0  0  0  0  0
   11.5708   -1.8238   21.9995 H   0  0  0  0  0  0  0  0  0  0  0  0
    8.4572   -3.1593   23.6242 H   0  0  0  0  0  0  0  0  0  0  0  0
    9.2906   -2.8328   25.1816 H   0  0  0  0  0  0  0  0  0  0  0  0
    7.9101   -0.9129   23.6776 H   0  0  0  0  0  0  0  0  0  0  0  0
    9.1881   -0.5389   24.8833 H   0  0  0  0  0  0  0  0  0  0  0  0
    7.4655    0.0614   22.4020 H   0  0  0  0  0  0  0  0  0  0  0  0
    5.7211    1.7384   22.3828 H   0  0  0  0  0  0  0  0  0  0  0  0
    4.1453    1.1255   21.7766 H   0  0  0  0  0  0  0  0  0  0  0  0
    5.3286   -0.0097   22.5099 H   0  0  0  0  0  0  0  0  0  0  0  0
    8.7113   -0.1472   18.9795 H   0  0  0  0  0  0  0  0  0  0  0  0
    5.0835    0.8790   17.2592 H   0  0  0  0  0  0  0  0  0  0  0  0
    4.0397    1.1336   19.4451 H   0  0  0  0  0  0  0  0  0  0  0  0
  1  2  3  0  0  0  0
  2  3  1  0  0  0  0
  3  4  1  0  0  0  0
  3  7  1  0  0  0  0
  3  8  1  0  0  0  0
  4  5  1  0  0  0  0
  4 18  1  0  0  0  0
  4 19  1  0  0  0  0
  5  6  1  0  0  0  0
  6  7  1  0  0  0  0
  6 20  1  0  0  0  0
  6 21  1  0  0  0  0
  7 22  1  0  0  0  0
  7 23  1  0  0  0  0
  8  9  2  0  0  0  0
  8 10  1  0  0  0  0
 10 11  1  0  0  0  0
 10 24  1  0  0  0  0
 11 12  2  0  0  0  0
 11 14  1  0  0  0  0
 12 13  1  0  0  0  0
 12 17  1  0  0  0  0
 13 25  1  0  0  0  0
 13 26  1  0  0  0  0
 13 27  1  0  0  0  0
 14 15  2  0  0  0  0
 14 28  1  0  0  0  0
 15 16  1  0  0  0  0
 16 17  2  0  0  0  0
 16 29  1  0  0  0  0
 17 30  1  0  0  0  0
M  END
> <compound_name>
MAT-POS-590ac91e-27

> <provenance>
{"isomeric_smiles": "Cc1ccncc1NC(=O)[C@]2(CCOC2)C#N", "inchi": "InChI=1S/C12H13N3O2/c1-9-2-4-14-6-10(9)15-11(16)12(7-13)3-5-17-8-12/h2,4,6H,3,5,8H2,1H3,(H,15,16)/t12-/m1/s1", "inchi_key": "UDNOYHYGEXMWIJ-GFCCVEGCSA-N", "fixed_inchi": "InChI=1/C12H13N3O2/c1-9-2-4-14-6-10(9)15-11(16)12(7-13)3-5-17-8-12/h2,4,6H,3,5,8H2,1H3,(H,15,16)/t12-/m1/s1/f/h15H", "fixed_inchikey": "UDNOYHYGEXMWIJ-QSTXBKNHNA-N"}

> <data_format>
sdf

$$$$
