LIG(A-305)
  -OEChem-06042511313D

 29 30  0     1  0  0  0  0  0999 V2000
   10.0739   -0.4897   24.9257 C   0  0  0  0  0  0  0  0  0  0  0  0
   11.8536   -1.6698   23.6765 C   0  0  0  0  0  0  0  0  0  0  0  0
   12.8615   -1.5609   22.5714 C   0  0  0  0  0  0  0  0  0  0  0  0
   13.8177   -0.4120   22.8183 C   0  0  0  0  0  0  0  0  0  0  0  0
   13.0459    0.9210   23.0584 C   0  0  0  0  0  0  0  0  0  0  0  0
   13.6010    2.1520   22.6574 C   0  0  0  0  0  0  0  0  0  0  0  0
   12.8951    3.3391   22.8675 C   0  0  0  0  0  0  0  0  0  0  0  0
   11.6262    3.2762   23.4766 C   0  0  0  0  0  0  0  0  0  0  0  0
   11.0721    2.0633   23.8686 C   0  0  0  0  0  0  0  0  0  0  0  0
   11.7829    0.8662   23.6536 C   0  0  0  0  0  0  0  0  0  0  0  0
   11.2218   -0.4398   24.0536 N   0  0  3  0  0  0  0  0  0  0  0  0
   11.6555    6.1492   23.5166 N   0  0  0  0  0  0  0  0  0  0  0  0
   10.1735    4.6963   25.1458 O   0  0  0  0  0  0  0  0  0  0  0  0
    9.4373    4.8225   23.0109 O   0  0  0  0  0  0  0  0  0  0  0  0
   10.6814    4.7783   23.7817 S   0  0  0  0  0  0  0  0  0  0  0  0
    9.8000   -1.5385   25.1125 H   0  0  0  0  0  0  0  0  0  0  0  0
   10.3168    0.0013   25.8797 H   0  0  0  0  0  0  0  0  0  0  0  0
    9.2294    0.0306   24.4501 H   0  0  0  0  0  0  0  0  0  0  0  0
   11.0689   -2.3695   23.3529 H   0  0  0  0  0  0  0  0  0  0  0  0
   12.3637   -2.0753   24.5627 H   0  0  0  0  0  0  0  0  0  0  0  0
   13.4337   -2.4986   22.5129 H   0  0  0  0  0  0  0  0  0  0  0  0
   12.3354   -1.3927   21.6203 H   0  0  0  0  0  0  0  0  0  0  0  0
   14.4287   -0.6377   23.7048 H   0  0  0  0  0  0  0  0  0  0  0  0
   14.4722   -0.2951   21.9420 H   0  0  0  0  0  0  0  0  0  0  0  0
   14.5729    2.1781   22.1872 H   0  0  0  0  0  0  0  0  0  0  0  0
   13.3147    4.2882   22.5682 H   0  0  0  0  0  0  0  0  0  0  0  0
   10.0992    2.0386   24.3369 H   0  0  0  0  0  0  0  0  0  0  0  0
   11.7155    6.6841   24.3595 H   0  0  0  0  0  0  0  0  0  0  0  0
   12.3410    5.9417   22.8187 H   0  0  0  0  0  0  0  0  0  0  0  0
  1 11  1  0  0  0  0
  1 16  1  0  0  0  0
  1 17  1  0  0  0  0
  1 18  1  0  0  0  0
  2  3  1  0  0  0  0
  2 11  1  0  0  0  0
  2 19  1  0  0  0  0
  2 20  1  0  0  0  0
  3  4  1  0  0  0  0
  3 21  1  0  0  0  0
  3 22  1  0  0  0  0
  4  5  1  0  0  0  0
  4 23  1  0  0  0  0
  4 24  1  0  0  0  0
  5  6  2  0  0  0  0
  5 10  1  0  0  0  0
  6  7  1  0  0  0  0
  6 25  1  0  0  0  0
  7  8  2  0  0  0  0
  7 26  1  0  0  0  0
  8  9  1  0  0  0  0
  8 15  1  0  0  0  0
  9 10  2  0  0  0  0
  9 27  1  0  0  0  0
 10 11  1  0  0  0  0
 12 15  1  0  0  0  0
 12 28  1  0  0  0  0
 12 29  1  0  0  0  0
 13 15  2  0  0  0  0
 14 15  2  0  0  0  0
M  END
> <compound_name>
AAR-POS-d2a4d1df-4

> <provenance>
{"isomeric_smiles": "CN1CCCc2c1cc(cc2)S(=O)(=O)N", "inchi": "InChI=1S/C10H14N2O2S/c1-12-6-2-3-8-4-5-9(7-10(8)12)15(11,13)14/h4-5,7H,2-3,6H2,1H3,(H2,11,13,14)", "inchi_key": "OUJFDUTZTPBMDN-UHFFFAOYSA-N", "fixed_inchi": "InChI=1/C10H14N2O2S/c1-12-6-2-3-8-4-5-9(7-10(8)12)15(11,13)14/h4-5,7H,2-3,6H2,1H3,(H2,11,13,14)/f/h11H2", "fixed_inchikey": "OUJFDUTZTPBMDN-QMLCPYSLNA-N"}

> <data_format>
sdf

$$$$
