LIG(A-306)
  -OEChem-06042511403D

 52 55  0     1  0  0  0  0  0999 V2000
    9.2873    0.8219   21.1114 O   0  0  0  0  0  0  0  0  0  0  0  0
    8.7141   -0.1819   21.5346 C   0  0  0  0  0  0  0  0  0  0  0  0
    7.5689   -0.6647   20.9946 N   0  0  0  0  0  0  0  0  0  0  0  0
    6.8257   -0.1216   19.9225 C   0  0  0  0  0  0  0  0  0  0  0  0
    5.6997    0.7094   20.2240 C   0  0  0  0  0  0  0  0  0  0  0  0
    5.2247    0.9500   21.5404 C   0  0  0  0  0  0  0  0  0  0  0  0
    4.1566    1.7723   21.7608 C   0  0  0  0  0  0  0  0  0  0  0  0
    3.5197    2.4100   20.6992 C   0  0  0  0  0  0  0  0  0  0  0  0
    3.9278    2.1965   19.4150 C   0  0  0  0  0  0  0  0  0  0  0  0
    5.0148    1.3294   19.1393 C   0  0  0  0  0  0  0  0  0  0  0  0
    5.4677    1.0459   17.8267 C   0  0  0  0  0  0  0  0  0  0  0  0
    6.5058    0.2679   17.5475 N   0  0  0  0  0  0  0  0  0  0  0  0
    7.1579   -0.2887   18.5785 C   0  0  0  0  0  0  0  0  0  0  0  0
    9.2198   -0.9532   22.7566 C   0  0  1  0  0  0  0  0  0  0  0  0
   10.6916   -0.6245   22.9498 C   0  0  0  0  0  0  0  0  0  0  0  0
   11.0652    0.3953   23.8388 C   0  0  0  0  0  0  0  0  0  0  0  0
   12.3892    0.8312   23.8565 C   0  0  0  0  0  0  0  0  0  0  0  0
   13.3367    0.2692   23.0224 C   0  0  0  0  0  0  0  0  0  0  0  0
   11.6660   -1.2327   22.1544 C   0  0  0  0  0  0  0  0  0  0  0  0
   12.9680   -0.7679   22.1953 C   0  0  0  0  0  0  0  0  0  0  0  0
   14.1640   -1.4974   21.1573 Cl  0  0  0  0  0  0  0  0  0  0  0  0
    8.4121   -0.5425   23.9909 C   0  0  0  0  0  0  0  0  0  0  0  0
    8.6754    0.8634   24.3029 N   0  3  2  0  0  0  0  0  0  0  0  0
   10.0600    1.0299   24.7743 C   0  0  0  0  0  0  0  0  0  0  0  0
    7.7071    1.4470   25.2281 C   0  0  0  0  0  0  0  0  0  0  0  0
    7.0758    2.7448   24.7477 C   0  0  0  0  0  0  0  0  0  0  0  0
    5.9146    3.0230   25.0335 O   0  0  0  0  0  0  0  0  0  0  0  0
    7.8534    3.5348   24.0084 N   0  0  0  0  0  0  0  0  0  0  0  0
    7.3445    4.1949   22.8159 C   0  0  0  0  0  0  0  0  0  0  0  0
    7.8995    5.5524   22.6604 C   0  0  0  0  0  0  0  0  0  0  0  0
    8.3218    6.6033   22.4955 N   0  0  0  0  0  0  0  0  0  0  0  0
    7.2074   -1.5031   21.4024 H   0  0  0  0  0  0  0  0  0  0  0  0
    5.7144    0.4764   22.3784 H   0  0  0  0  0  0  0  0  0  0  0  0
    3.8023    1.9296   22.7688 H   0  0  0  0  0  0  0  0  0  0  0  0
    2.6952    3.0797   20.8943 H   0  0  0  0  0  0  0  0  0  0  0  0
    3.4186    2.6922   18.6017 H   0  0  0  0  0  0  0  0  0  0  0  0
    4.9336    1.4916   17.0006 H   0  0  0  0  0  0  0  0  0  0  0  0
    8.0071   -0.9157   18.3502 H   0  0  0  0  0  0  0  0  0  0  0  0
    9.1019   -2.0331   22.5836 H   0  0  0  0  0  0  0  0  0  0  0  0
   12.6792    1.6212   24.5334 H   0  0  0  0  0  0  0  0  0  0  0  0
   14.3517    0.6381   23.0193 H   0  0  0  0  0  0  0  0  0  0  0  0
   11.4042   -2.0605   21.5119 H   0  0  0  0  0  0  0  0  0  0  0  0
    7.3395   -0.6782   23.7887 H   0  0  0  0  0  0  0  0  0  0  0  0
    8.7061   -1.1687   24.8461 H   0  0  0  0  0  0  0  0  0  0  0  0
    8.5997    1.3704   23.4443 H   0  0  0  0  0  0  0  0  0  0  0  0
   10.2798    2.1048   24.8533 H   0  0  0  0  0  0  0  0  0  0  0  0
   10.1548    0.5623   25.7654 H   0  0  0  0  0  0  0  0  0  0  0  0
    6.9032    0.7141   25.3909 H   0  0  0  0  0  0  0  0  0  0  0  0
    8.2197    1.6466   26.1806 H   0  0  0  0  0  0  0  0  0  0  0  0
    8.8057    3.6768   24.2785 H   0  0  0  0  0  0  0  0  0  0  0  0
    7.6167    3.5961   21.9342 H   0  0  0  0  0  0  0  0  0  0  0  0
    6.2491    4.2645   22.8878 H   0  0  0  0  0  0  0  0  0  0  0  0
  1  2  2  0  0  0  0
  2  3  1  0  0  0  0
  2 14  1  0  0  0  0
  3  4  1  0  0  0  0
  3 32  1  0  0  0  0
  4  5  2  0  0  0  0
  4 13  1  0  0  0  0
  5  6  1  0  0  0  0
  5 10  1  0  0  0  0
  6  7  2  0  0  0  0
  6 33  1  0  0  0  0
  7  8  1  0  0  0  0
  7 34  1  0  0  0  0
  8  9  2  0  0  0  0
  8 35  1  0  0  0  0
  9 10  1  0  0  0  0
  9 36  1  0  0  0  0
 10 11  2  0  0  0  0
 11 12  1  0  0  0  0
 11 37  1  0  0  0  0
 12 13  2  0  0  0  0
 13 38  1  0  0  0  0
 14 15  1  0  0  0  0
 14 22  1  0  0  0  0
 14 39  1  0  0  0  0
 15 16  2  0  0  0  0
 15 19  1  0  0  0  0
 16 17  1  0  0  0  0
 16 24  1  0  0  0  0
 17 18  2  0  0  0  0
 17 40  1  0  0  0  0
 18 20  1  0  0  0  0
 18 41  1  0  0  0  0
 19 20  2  0  0  0  0
 19 42  1  0  0  0  0
 20 21  1  0  0  0  0
 22 23  1  0  0  0  0
 22 43  1  0  0  0  0
 22 44  1  0  0  0  0
 23 24  1  0  0  0  0
 23 25  1  0  0  0  0
 23 45  1  0  0  0  0
 24 46  1  0  0  0  0
 24 47  1  0  0  0  0
 25 26  1  0  0  0  0
 25 48  1  0  0  0  0
 25 49  1  0  0  0  0
 26 27  2  0  0  0  0
 26 28  1  0  0  0  0
 28 29  1  0  0  0  0
 28 50  1  0  0  0  0
 29 30  1  0  0  0  0
 29 51  1  0  0  0  0
 29 52  1  0  0  0  0
 30 31  3  0  0  0  0
M  CHG  1  23   1
M  END
> <compound_name>
MAT-POS-5cd9ea36-15

> <provenance>
{"isomeric_smiles": "c1ccc2c(c1)cncc2NC(=O)[C@@H]3C[N@H+](Cc4c3cc(cc4)Cl)CC(=O)NCC#N", "inchi": "InChI=1S/C23H20ClN5O2/c24-17-6-5-16-12-29(14-22(30)27-8-7-25)13-20(19(16)9-17)23(31)28-21-11-26-10-15-3-1-2-4-18(15)21/h1-6,9-11,20H,8,12-14H2,(H,27,30)(H,28,31)/p+1/t20-/m1/s1", "inchi_key": "LMKSIQRBKBYNDJ-HXUWFJFHSA-O", "fixed_inchi": "InChI=1/C23H20ClN5O2/c24-17-6-5-16-12-29(14-22(30)27-8-7-25)13-20(19(16)9-17)23(31)28-21-11-26-10-15-3-1-2-4-18(15)21/h1-6,9-11,20H,8,12-14H2,(H,27,30)(H,28,31)/p+1/t20-/m1/s1/fC23H21ClN5O2/h27-29H/q+1", "fixed_inchikey": "LMKSIQRBKBYNDJ-HQDRDDIWNA-O"}

> <data_format>
sdf

$$$$
