LIG(A-306)
  -OEChem-06042511423D

 62 66  0     1  0  0  0  0  0999 V2000
    8.3074    6.5900   22.8079 N   0  0  0  0  0  0  0  0  0  0  0  0
    7.6153    5.6867   22.7846 C   0  0  0  0  0  0  0  0  0  0  0  0
    6.7416    4.5091   22.6901 C   0  0  0  0  0  0  0  0  0  0  0  0
    5.3489    4.5794   23.2779 C   0  0  0  0  0  0  0  0  0  0  0  0
    5.5216    4.6633   21.8093 C   0  0  0  0  0  0  0  0  0  0  0  0
    7.5016    3.1882   22.7213 C   0  0  0  0  0  0  0  0  0  0  0  0
    7.8707    2.5394   24.3400 S   0  0  0  0  0  0  0  0  0  0  0  0
    6.7093    1.8706   24.8341 O   0  0  0  0  0  0  0  0  0  0  0  0
    8.4524    3.5922   25.1120 O   0  0  0  0  0  0  0  0  0  0  0  0
    9.0160    1.4108   24.1240 N   0  0  2  0  0  0  0  0  0  0  0  0
    8.6977   -0.0294   24.1100 C   0  0  0  0  0  0  0  0  0  0  0  0
   10.4099    1.7390   24.4471 C   0  0  0  0  0  0  0  0  0  0  0  0
   11.3487    0.8839   23.6256 C   0  0  0  0  0  0  0  0  0  0  0  0
   10.9038   -0.2697   22.9540 C   0  0  0  0  0  0  0  0  0  0  0  0
   11.8218   -1.0413   22.2379 C   0  0  0  0  0  0  0  0  0  0  0  0
   13.1337   -0.6208   22.1355 C   0  0  0  0  0  0  0  0  0  0  0  0
   14.2273   -1.5052   21.1107 Cl  0  0  0  0  0  0  0  0  0  0  0  0
   13.5805    0.5171   22.7700 C   0  0  0  0  0  0  0  0  0  0  0  0
   12.6895    1.2554   23.5269 C   0  0  0  0  0  0  0  0  0  0  0  0
    9.4171   -0.5780   22.8770 C   0  0  2  0  0  0  0  0  0  0  0  0
    8.7840    0.0307   21.6202 C   0  0  0  0  0  0  0  0  0  0  0  0
    9.2770    1.0044   21.0539 O   0  0  0  0  0  0  0  0  0  0  0  0
    7.6245   -0.5546   21.2117 N   0  0  0  0  0  0  0  0  0  0  0  0
    6.7850   -0.1574   20.1380 C   0  0  0  0  0  0  0  0  0  0  0  0
    7.1624   -0.2086   18.7946 C   0  0  0  0  0  0  0  0  0  0  0  0
    6.4803    0.3390   17.7765 N   0  0  0  0  0  0  0  0  0  0  0  0
    5.3619    0.9921   18.0671 C   0  0  0  0  0  0  0  0  0  0  0  0
    4.8317    1.1209   19.3749 C   0  0  0  0  0  0  0  0  0  0  0  0
    5.5426    0.4929   20.4406 C   0  0  0  0  0  0  0  0  0  0  0  0
    4.9692    0.5289   21.7340 C   0  0  0  0  0  0  0  0  0  0  0  0
    3.7927    1.1724   21.9626 C   0  0  0  0  0  0  0  0  0  0  0  0
    3.6354    1.8282   19.6639 C   0  0  0  0  0  0  0  0  0  0  0  0
    3.1389    1.8719   20.9513 C   0  0  0  0  0  0  0  0  0  0  0  0
    1.9858    2.6478   21.3095 N   0  0  0  0  0  0  0  0  0  0  0  0
    1.1078    3.6534   20.3728 S   0  0  0  0  0  0  0  0  0  0  0  0
    1.8575    4.8720   20.3206 O   0  0  0  0  0  0  0  0  0  0  0  0
    0.7898    2.9892   19.1476 O   0  0  0  0  0  0  0  0  0  0  0  0
   -0.3852    3.9636   21.2359 C   0  0  0  0  0  0  0  0  0  0  0  0
    4.8974    3.6822   23.7264 H   0  0  0  0  0  0  0  0  0  0  0  0
    5.0376    5.4691   23.8450 H   0  0  0  0  0  0  0  0  0  0  0  0
    5.1976    3.8282   21.1709 H   0  0  0  0  0  0  0  0  0  0  0  0
    5.3378    5.6151   21.2894 H   0  0  0  0  0  0  0  0  0  0  0  0
    6.8977    2.4394   22.1879 H   0  0  0  0  0  0  0  0  0  0  0  0
    8.4545    3.3353   22.1920 H   0  0  0  0  0  0  0  0  0  0  0  0
    9.0688   -0.5169   25.0235 H   0  0  0  0  0  0  0  0  0  0  0  0
    7.6121   -0.1852   24.0263 H   0  0  0  0  0  0  0  0  0  0  0  0
   10.5949    2.8001   24.2241 H   0  0  0  0  0  0  0  0  0  0  0  0
   10.5893    1.5523   25.5163 H   0  0  0  0  0  0  0  0  0  0  0  0
   11.5078   -1.9612   21.7670 H   0  0  0  0  0  0  0  0  0  0  0  0
   14.6107    0.8278   22.6778 H   0  0  0  0  0  0  0  0  0  0  0  0
   13.0374    2.1338   24.0503 H   0  0  0  0  0  0  0  0  0  0  0  0
    9.2820   -1.6692   22.8459 H   0  0  0  0  0  0  0  0  0  0  0  0
    7.3298   -1.3584   21.7285 H   0  0  0  0  0  0  0  0  0  0  0  0
    8.0770   -0.7309   18.5553 H   0  0  0  0  0  0  0  0  0  0  0  0
    4.8214    1.4551   17.2548 H   0  0  0  0  0  0  0  0  0  0  0  0
    5.4737    0.0373   22.5527 H   0  0  0  0  0  0  0  0  0  0  0  0
    3.3562    1.1402   22.9499 H   0  0  0  0  0  0  0  0  0  0  0  0
    3.1089    2.3365   18.8696 H   0  0  0  0  0  0  0  0  0  0  0  0
    2.0184    2.9527   22.2614 H   0  0  0  0  0  0  0  0  0  0  0  0
   -1.0178    4.6411   20.6435 H   0  0  0  0  0  0  0  0  0  0  0  0
   -0.9175    3.0151   21.4001 H   0  0  0  0  0  0  0  0  0  0  0  0
   -0.1577    4.4292   22.2062 H   0  0  0  0  0  0  0  0  0  0  0  0
  1  2  3  0  0  0  0
  2  3  1  0  0  0  0
  3  4  1  0  0  0  0
  3  5  1  0  0  0  0
  3  6  1  0  0  0  0
  4  5  1  0  0  0  0
  4 39  1  0  0  0  0
  4 40  1  0  0  0  0
  5 41  1  0  0  0  0
  5 42  1  0  0  0  0
  6  7  1  0  0  0  0
  6 43  1  0  0  0  0
  6 44  1  0  0  0  0
  7  8  2  0  0  0  0
  7  9  2  0  0  0  0
  7 10  1  0  0  0  0
 10 11  1  0  0  0  0
 10 12  1  0  0  0  0
 11 20  1  0  0  0  0
 11 45  1  0  0  0  0
 11 46  1  0  0  0  0
 12 13  1  0  0  0  0
 12 47  1  0  0  0  0
 12 48  1  0  0  0  0
 13 14  2  0  0  0  0
 13 19  1  0  0  0  0
 14 15  1  0  0  0  0
 14 20  1  0  0  0  0
 15 16  2  0  0  0  0
 15 49  1  0  0  0  0
 16 17  1  0  0  0  0
 16 18  1  0  0  0  0
 18 19  2  0  0  0  0
 18 50  1  0  0  0  0
 19 51  1  0  0  0  0
 20 21  1  0  0  0  0
 20 52  1  0  0  0  0
 21 22  2  0  0  0  0
 21 23  1  0  0  0  0
 23 24  1  0  0  0  0
 23 53  1  0  0  0  0
 24 25  2  0  0  0  0
 24 29  1  0  0  0  0
 25 26  1  0  0  0  0
 25 54  1  0  0  0  0
 26 27  2  0  0  0  0
 27 28  1  0  0  0  0
 27 55  1  0  0  0  0
 28 29  2  0  0  0  0
 28 32  1  0  0  0  0
 29 30  1  0  0  0  0
 30 31  2  0  0  0  0
 30 56  1  0  0  0  0
 31 33  1  0  0  0  0
 31 57  1  0  0  0  0
 32 33  2  0  0  0  0
 32 58  1  0  0  0  0
 33 34  1  0  0  0  0
 34 35  1  0  0  0  0
 34 59  1  0  0  0  0
 35 36  2  0  0  0  0
 35 37  2  0  0  0  0
 35 38  1  0  0  0  0
 38 60  1  0  0  0  0
 38 61  1  0  0  0  0
 38 62  1  0  0  0  0
M  END
> <compound_name>
EDJ-MED-be9e6f63-3

> <provenance>
{"isomeric_smiles": "CS(=O)(=O)Nc1ccc2c(c1)cncc2NC(=O)[C@@H]3C[N@](Cc4c3cc(cc4)Cl)S(=O)(=O)CC5(CC5)C#N", "inchi": "InChI=1S/C25H24ClN5O5S2/c1-37(33,34)30-19-4-5-20-17(8-19)10-28-11-23(20)29-24(32)22-13-31(12-16-2-3-18(26)9-21(16)22)38(35,36)15-25(14-27)6-7-25/h2-5,8-11,22,30H,6-7,12-13,15H2,1H3,(H,29,32)/t22-/m1/s1", "inchi_key": "VNRACBLIZVOLEF-JOCHJYFZSA-N", "fixed_inchi": "InChI=1/C25H24ClN5O5S2/c1-37(33,34)30-19-4-5-20-17(8-19)10-28-11-23(20)29-24(32)22-13-31(12-16-2-3-18(26)9-21(16)22)38(35,36)15-25(14-27)6-7-25/h2-5,8-11,22,30H,6-7,12-13,15H2,1H3,(H,29,32)/t22-/m1/s1/f/h29H", "fixed_inchikey": "VNRACBLIZVOLEF-ZJLLOKRPNA-N"}

> <data_format>
sdf

$$$$
