LIG(A-305)
  -OEChem-06042511333D

 33 35  0     0  0  0  0  0  0999 V2000
    8.9286    0.9588   21.3046 O   0  0  0  0  0  0  0  0  0  0  0  0
    8.5655   -0.1731   21.6116 C   0  0  0  0  0  0  0  0  0  0  0  0
    9.0785   -0.8812   22.8516 C   0  0  0  0  0  0  0  0  0  0  0  0
   10.5555   -0.6313   23.0425 C   0  0  0  0  0  0  0  0  0  0  0  0
   11.0027    0.3626   23.9034 C   0  0  0  0  0  0  0  0  0  0  0  0
   12.3368    0.7405   23.9203 C   0  0  0  0  0  0  0  0  0  0  0  0
   13.2516    0.1084   23.0912 C   0  0  0  0  0  0  0  0  0  0  0  0
   11.4824   -1.2934   22.2434 C   0  0  0  0  0  0  0  0  0  0  0  0
   12.8105   -0.9166   22.2813 C   0  0  0  0  0  0  0  0  0  0  0  0
   13.9553   -1.7637   21.2772 Cl  0  0  0  0  0  0  0  0  0  0  0  0
    7.6993   -0.9020   20.8497 N   0  0  0  0  0  0  0  0  0  0  0  0
    7.1153   -0.4020   19.6898 C   0  0  0  0  0  0  0  0  0  0  0  0
    6.0554    0.4741   19.7478 N   0  0  0  0  0  0  0  0  0  0  0  0
    5.7693    0.8171   18.4299 C   0  0  0  0  0  0  0  0  0  0  0  0
    6.5942    0.1940   17.5868 N   0  3  0  0  0  0  0  0  0  0  0  0
    7.4132   -0.5590   18.3777 C   0  0  0  0  0  0  0  0  0  0  0  0
    5.3385    0.9862   20.8139 C   0  0  0  0  0  0  0  0  0  0  0  0
    4.3246    1.8473   20.5790 C   0  0  0  0  0  0  0  0  0  0  0  0
    4.0055    2.2233   19.2500 C   0  0  0  0  0  0  0  0  0  0  0  0
    4.7074    1.7192   18.1929 C   0  0  0  0  0  0  0  0  0  0  0  0
    8.5335   -0.5077   23.7311 H   0  0  0  0  0  0  0  0  0  0  0  0
    8.9069   -1.9625   22.7458 H   0  0  0  0  0  0  0  0  0  0  0  0
   10.3027    0.8472   24.5680 H   0  0  0  0  0  0  0  0  0  0  0  0
   12.6645    1.5294   24.5811 H   0  0  0  0  0  0  0  0  0  0  0  0
   14.2878    0.4127   23.0803 H   0  0  0  0  0  0  0  0  0  0  0  0
   11.1649   -2.0980   21.5968 H   0  0  0  0  0  0  0  0  0  0  0  0
    7.4752   -1.8334   21.1365 H   0  0  0  0  0  0  0  0  0  0  0  0
    6.6093    0.2637   16.5893 H   0  0  0  0  0  0  0  0  0  0  0  0
    8.1991   -1.1990   18.0047 H   0  0  0  0  0  0  0  0  0  0  0  0
    5.5871    0.7002   21.8252 H   0  0  0  0  0  0  0  0  0  0  0  0
    3.7564    2.2497   21.4046 H   0  0  0  0  0  0  0  0  0  0  0  0
    3.1973    2.9171   19.0714 H   0  0  0  0  0  0  0  0  0  0  0  0
    4.4531    2.0076   17.1837 H   0  0  0  0  0  0  0  0  0  0  0  0
  1  2  2  0  0  0  0
  2  3  1  0  0  0  0
  2 11  1  0  0  0  0
  3  4  1  0  0  0  0
  4  5  2  0  0  0  0
  4  8  1  0  0  0  0
  5  6  1  0  0  0  0
  6  7  2  0  0  0  0
  7  9  1  0  0  0  0
  8  9  2  0  0  0  0
  9 10  1  0  0  0  0
 11 12  1  0  0  0  0
 12 13  1  0  0  0  0
 12 16  2  0  0  0  0
 13 14  1  0  0  0  0
 13 17  1  0  0  0  0
 14 15  2  0  0  0  0
 14 20  1  0  0  0  0
 15 16  1  0  0  0  0
 17 18  2  0  0  0  0
 18 19  1  0  0  0  0
 19 20  2  0  0  0  0
  3 21  1  0  0  0  0
  3 22  1  0  0  0  0
  5 23  1  0  0  0  0
  6 24  1  0  0  0  0
  7 25  1  0  0  0  0
  8 26  1  0  0  0  0
 11 27  1  0  0  0  0
 15 28  1  0  0  0  0
 16 29  1  0  0  0  0
 17 30  1  0  0  0  0
 18 31  1  0  0  0  0
 19 32  1  0  0  0  0
 20 33  1  0  0  0  0
M  CHG  1  15   1
M  END
> <compound_name>
PET-UNK-8df914d1-2

> <provenance>
{"isomeric_smiles": "c1ccn2c(c1)ncc2NC(=O)Cc3cccc(c3)Cl", "inchi": "InChI=1S/C15H12ClN3O/c16-12-5-3-4-11(8-12)9-15(20)18-14-10-17-13-6-1-2-7-19(13)14/h1-8,10H,9H2,(H,18,20)", "inchi_key": "GRCPKASYWFJZEJ-UHFFFAOYSA-N", "fixed_inchi": "InChI=1/C15H12ClN3O/c16-12-5-3-4-11(8-12)9-15(20)18-14-10-17-13-6-1-2-7-19(13)14/h1-8,10H,9H2,(H,18,20)/f/h18H", "fixed_inchikey": "GRCPKASYWFJZEJ-GPQMBLKYNA-N"}

> <data_format>
sdf

$$$$
