LIG(A-305)
  -OEChem-06042511313D

 34 35  0     0  0  0  0  0  0999 V2000
   13.6312   -1.9274   21.3358 Cl  0  0  0  0  0  0  0  0  0  0  0  0
   12.4703   -1.0544   22.2989 C   0  0  0  0  0  0  0  0  0  0  0  0
   12.9153   -0.1165   23.2059 C   0  0  0  0  0  0  0  0  0  0  0  0
   11.9873    0.5065   24.0259 C   0  0  0  0  0  0  0  0  0  0  0  0
   10.6383    0.2116   23.9029 C   0  0  0  0  0  0  0  0  0  0  0  0
   11.1283   -1.3524   22.1599 C   0  0  0  0  0  0  0  0  0  0  0  0
   10.1923   -0.6994   22.9559 C   0  0  0  0  0  0  0  0  0  0  0  0
    8.7153   -0.9084   22.7149 C   0  0  0  0  0  0  0  0  0  0  0  0
    8.2173   -0.0943   21.5359 C   0  0  0  0  0  0  0  0  0  0  0  0
    8.8603    0.8507   21.0829 O   0  0  0  0  0  0  0  0  0  0  0  0
    7.0273   -0.5003   21.0319 N   0  0  0  0  0  0  0  0  0  0  0  0
    6.3613    0.1488   19.9469 C   0  0  0  0  0  0  0  0  0  0  0  0
    5.3183    1.0408   20.2209 C   0  0  0  0  0  0  0  0  0  0  0  0
    4.8663    1.3377   21.6279 C   0  0  0  0  0  0  0  0  0  0  0  0
    6.7663   -0.0802   18.6169 C   0  0  0  0  0  0  0  0  0  0  0  0
    7.8823   -1.0132   18.2549 C   0  0  0  0  0  0  0  0  0  0  0  0
    6.1603    0.5478   17.6019 N   0  0  0  0  0  0  0  0  0  0  0  0
    5.1573    1.3948   17.8699 C   0  0  0  0  0  0  0  0  0  0  0  0
    4.7123    1.6638   19.1419 C   0  0  0  0  0  0  0  0  0  0  0  0
   13.9649    0.1279   23.2761 H   0  0  0  0  0  0  0  0  0  0  0  0
   12.3163    1.2240   24.7630 H   0  0  0  0  0  0  0  0  0  0  0  0
    9.9252    0.6971   24.5526 H   0  0  0  0  0  0  0  0  0  0  0  0
   10.8075   -2.0882   21.4372 H   0  0  0  0  0  0  0  0  0  0  0  0
    8.5345   -1.9746   22.5133 H   0  0  0  0  0  0  0  0  0  0  0  0
    8.1611   -0.6064   23.6158 H   0  0  0  0  0  0  0  0  0  0  0  0
    6.5897   -1.3002   21.4426 H   0  0  0  0  0  0  0  0  0  0  0  0
    5.7047    1.7594   22.2017 H   0  0  0  0  0  0  0  0  0  0  0  0
    4.0390    2.0622   21.6019 H   0  0  0  0  0  0  0  0  0  0  0  0
    4.5250    0.4083   22.1071 H   0  0  0  0  0  0  0  0  0  0  0  0
    8.3000   -1.4585   19.1698 H   0  0  0  0  0  0  0  0  0  0  0  0
    7.4965   -1.8104   17.6023 H   0  0  0  0  0  0  0  0  0  0  0  0
    8.6694   -0.4556   17.7263 H   0  0  0  0  0  0  0  0  0  0  0  0
    4.6730    1.8924   17.0426 H   0  0  0  0  0  0  0  0  0  0  0  0
    3.8973    2.3548   19.2991 H   0  0  0  0  0  0  0  0  0  0  0  0
  1  2  1  0  0  0  0
  2  3  2  0  0  0  0
  2  6  1  0  0  0  0
  3  4  1  0  0  0  0
  3 20  1  0  0  0  0
  4  5  2  0  0  0  0
  4 21  1  0  0  0  0
  5  7  1  0  0  0  0
  5 22  1  0  0  0  0
  6  7  2  0  0  0  0
  6 23  1  0  0  0  0
  7  8  1  0  0  0  0
  8  9  1  0  0  0  0
  8 24  1  0  0  0  0
  8 25  1  0  0  0  0
  9 10  2  0  0  0  0
  9 11  1  0  0  0  0
 11 12  1  0  0  0  0
 11 26  1  0  0  0  0
 12 13  2  0  0  0  0
 12 15  1  0  0  0  0
 13 14  1  0  0  0  0
 13 19  1  0  0  0  0
 14 27  1  0  0  0  0
 14 28  1  0  0  0  0
 14 29  1  0  0  0  0
 15 16  1  0  0  0  0
 15 17  2  0  0  0  0
 16 30  1  0  0  0  0
 16 31  1  0  0  0  0
 16 32  1  0  0  0  0
 17 18  1  0  0  0  0
 18 19  2  0  0  0  0
 18 33  1  0  0  0  0
 19 34  1  0  0  0  0
M  END
> <compound_name>
EDJ-MED-49816e9b-2

> <provenance>
{"isomeric_smiles": "Cc1ccnc(c1NC(=O)Cc2cccc(c2)Cl)C", "inchi": "InChI=1S/C15H15ClN2O/c1-10-6-7-17-11(2)15(10)18-14(19)9-12-4-3-5-13(16)8-12/h3-8H,9H2,1-2H3,(H,18,19)", "inchi_key": "XEOITIZTKXMLOT-UHFFFAOYSA-N", "fixed_inchi": "InChI=1/C15H15ClN2O/c1-10-6-7-17-11(2)15(10)18-14(19)9-12-4-3-5-13(16)8-12/h3-8H,9H2,1-2H3,(H,18,19)/f/h18H", "fixed_inchikey": "XEOITIZTKXMLOT-GPQMBLKYNA-N"}

> <data_format>
sdf

$$$$
