LIG(A-305)
  -OEChem-06042511303D

 36 38  0     1  0  0  0  0  0999 V2000
   13.8791   -1.7466   21.1641 Cl  0  0  0  0  0  0  0  0  0  0  0  0
   12.7600   -0.9217   22.2091 C   0  0  0  0  0  0  0  0  0  0  0  0
   13.2390    0.0002   23.1162 C   0  0  0  0  0  0  0  0  0  0  0  0
   12.3600    0.5902   24.0062 C   0  0  0  0  0  0  0  0  0  0  0  0
   11.4211   -1.2477   22.1431 C   0  0  0  0  0  0  0  0  0  0  0  0
   10.5150   -0.6308   23.0041 C   0  0  0  0  0  0  0  0  0  0  0  0
   11.0100    0.2762   23.9461 C   0  0  0  0  0  0  0  0  0  0  0  0
   10.2090    0.8941   24.8791 O   0  0  0  0  0  0  0  0  0  0  0  0
    8.8110    1.0051   24.5331 C   0  0  0  0  0  0  0  0  0  0  0  0
    8.2360   -0.3058   24.0610 C   0  0  0  0  0  0  0  0  0  0  0  0
    9.0200   -0.8198   22.8380 C   0  0  1  0  0  0  0  0  0  0  0  0
    8.5841   -0.0547   21.5881 C   0  0  0  0  0  0  0  0  0  0  0  0
    9.2181    0.9023   21.1591 O   0  0  0  0  0  0  0  0  0  0  0  0
    7.4491   -0.5087   21.0180 N   0  0  0  0  0  0  0  0  0  0  0  0
    6.7821    0.0854   19.9210 C   0  0  0  0  0  0  0  0  0  0  0  0
    5.6291    0.8563   20.1561 C   0  0  0  0  0  0  0  0  0  0  0  0
    5.1200    1.1263   21.5491 C   0  0  0  0  0  0  0  0  0  0  0  0
    7.2401   -0.0506   18.6090 C   0  0  0  0  0  0  0  0  0  0  0  0
    6.6301    0.5015   17.5561 N   0  0  0  0  0  0  0  0  0  0  0  0
    5.5241    1.2195   17.7911 C   0  0  0  0  0  0  0  0  0  0  0  0
    4.9981    1.4174   19.0511 C   0  0  0  0  0  0  0  0  0  0  0  0
   14.2876    0.2584   23.1313 H   0  0  0  0  0  0  0  0  0  0  0  0
   12.7224    1.2912   24.7435 H   0  0  0  0  0  0  0  0  0  0  0  0
   11.0761   -1.9785   21.4266 H   0  0  0  0  0  0  0  0  0  0  0  0
    8.2519    1.3385   25.4198 H   0  0  0  0  0  0  0  0  0  0  0  0
    8.7027    1.7492   23.7303 H   0  0  0  0  0  0  0  0  0  0  0  0
    8.3027   -1.0454   24.8726 H   0  0  0  0  0  0  0  0  0  0  0  0
    7.1817   -0.1611   23.7825 H   0  0  0  0  0  0  0  0  0  0  0  0
    8.8030   -1.8892   22.6989 H   0  0  0  0  0  0  0  0  0  0  0  0
    7.0439   -1.3372   21.4045 H   0  0  0  0  0  0  0  0  0  0  0  0
    5.8920    1.6569   22.1257 H   0  0  0  0  0  0  0  0  0  0  0  0
    4.2128    1.7459   21.4942 H   0  0  0  0  0  0  0  0  0  0  0  0
    4.8835    0.1728   22.0440 H   0  0  0  0  0  0  0  0  0  0  0  0
    8.1337   -0.6321   18.4363 H   0  0  0  0  0  0  0  0  0  0  0  0
    5.0170    1.6674   16.9493 H   0  0  0  0  0  0  0  0  0  0  0  0
    4.1010    2.0050   19.1786 H   0  0  0  0  0  0  0  0  0  0  0  0
  1  2  1  0  0  0  0
  2  3  2  0  0  0  0
  2  5  1  0  0  0  0
  3  4  1  0  0  0  0
  3 22  1  0  0  0  0
  4  7  2  0  0  0  0
  4 23  1  0  0  0  0
  5  6  2  0  0  0  0
  5 24  1  0  0  0  0
  6  7  1  0  0  0  0
  6 11  1  0  0  0  0
  7  8  1  0  0  0  0
  8  9  1  0  0  0  0
  9 10  1  0  0  0  0
  9 25  1  0  0  0  0
  9 26  1  0  0  0  0
 10 11  1  0  0  0  0
 10 27  1  0  0  0  0
 10 28  1  0  0  0  0
 11 12  1  0  0  0  0
 11 29  1  0  0  0  0
 12 13  2  0  0  0  0
 12 14  1  0  0  0  0
 14 15  1  0  0  0  0
 14 30  1  0  0  0  0
 15 16  2  0  0  0  0
 15 18  1  0  0  0  0
 16 17  1  0  0  0  0
 16 21  1  0  0  0  0
 17 31  1  0  0  0  0
 17 32  1  0  0  0  0
 17 33  1  0  0  0  0
 18 19  2  0  0  0  0
 18 34  1  0  0  0  0
 19 20  1  0  0  0  0
 20 21  2  0  0  0  0
 20 35  1  0  0  0  0
 21 36  1  0  0  0  0
M  END
> <compound_name>
MAT-POS-b3e365b9-4

> <provenance>
{"isomeric_smiles": "Cc1ccncc1NC(=O)[C@@H]2CCOc3c2cc(cc3)Cl", "inchi": "InChI=1S/C16H15ClN2O2/c1-10-4-6-18-9-14(10)19-16(20)12-5-7-21-15-3-2-11(17)8-13(12)15/h2-4,6,8-9,12H,5,7H2,1H3,(H,19,20)/t12-/m1/s1", "inchi_key": "KJMNRTLNVIILOB-GFCCVEGCSA-N", "fixed_inchi": "InChI=1/C16H15ClN2O2/c1-10-4-6-18-9-14(10)19-16(20)12-5-7-21-15-3-2-11(17)8-13(12)15/h2-4,6,8-9,12H,5,7H2,1H3,(H,19,20)/t12-/m1/s1/f/h19H", "fixed_inchikey": "KJMNRTLNVIILOB-NMUGNXQVNA-N"}

> <data_format>
sdf

$$$$
