LIG(A-305)
  -OEChem-06042511323D

 34 36  0     0  0  0  0  0  0999 V2000
    9.8111    1.1461   21.2221 O   0  0  0  0  0  0  0  0  0  0  0  0
    9.5240    0.0532   21.6921 C   0  0  0  0  0  0  0  0  0  0  0  0
    8.4119   -0.6327   21.3381 N   0  0  0  0  0  0  0  0  0  0  0  0
    7.5109   -0.2016   20.3262 C   0  0  0  0  0  0  0  0  0  0  0  0
    7.8778   -0.1446   18.9782 C   0  0  0  0  0  0  0  0  0  0  0  0
    7.0658    0.2926   18.0063 N   0  0  0  0  0  0  0  0  0  0  0  0
    5.8349    0.6747   18.3594 C   0  0  0  0  0  0  0  0  0  0  0  0
    5.3789    0.6657   19.6634 C   0  0  0  0  0  0  0  0  0  0  0  0
    6.2180    0.2256   20.6843 C   0  0  0  0  0  0  0  0  0  0  0  0
    5.7571    0.2476   22.1184 C   0  0  0  0  0  0  0  0  0  0  0  0
   10.4390   -0.6360   22.6870 C   0  0  0  0  0  0  0  0  0  0  0  0
    9.8209   -1.6950   23.5720 C   0  0  0  0  0  0  0  0  0  0  0  0
   10.2318   -3.0210   23.4539 C   0  0  0  0  0  0  0  0  0  0  0  0
    9.8077   -3.9620   24.3909 C   0  0  0  0  0  0  0  0  0  0  0  0
   10.0936   -5.3220   24.5309 N   0  0  0  0  0  0  0  0  0  0  0  0
    9.4536   -5.6830   25.6259 C   0  0  0  0  0  0  0  0  0  0  0  0
    8.7677   -4.6739   26.2130 N   0  0  0  0  0  0  0  0  0  0  0  0
    8.9738   -3.5629   25.4350 C   0  0  0  0  0  0  0  0  0  0  0  0
    8.5230   -2.2559   25.5491 C   0  0  0  0  0  0  0  0  0  0  0  0
    8.9470   -1.3389   24.6001 C   0  0  0  0  0  0  0  0  0  0  0  0
    8.2132   -1.4893   21.8143 H   0  0  0  0  0  0  0  0  0  0  0  0
    8.8705   -0.4709   18.7054 H   0  0  0  0  0  0  0  0  0  0  0  0
    5.1608    1.0082   17.5842 H   0  0  0  0  0  0  0  0  0  0  0  0
    4.3768    0.9984   19.8901 H   0  0  0  0  0  0  0  0  0  0  0  0
    6.4080    0.9142   22.7031 H   0  0  0  0  0  0  0  0  0  0  0  0
    4.7209    0.6138   22.1647 H   0  0  0  0  0  0  0  0  0  0  0  0
    5.8055   -0.7695   22.5346 H   0  0  0  0  0  0  0  0  0  0  0  0
   11.2498   -1.1127   22.1166 H   0  0  0  0  0  0  0  0  0  0  0  0
   10.8596    0.1402   23.3432 H   0  0  0  0  0  0  0  0  0  0  0  0
   10.8761   -3.3186   22.6399 H   0  0  0  0  0  0  0  0  0  0  0  0
    9.4746   -6.6892   26.0177 H   0  0  0  0  0  0  0  0  0  0  0  0
    8.2199   -4.7278   27.0478 H   0  0  0  0  0  0  0  0  0  0  0  0
    7.8627   -1.9622   26.3517 H   0  0  0  0  0  0  0  0  0  0  0  0
    8.5913   -0.3208   24.6579 H   0  0  0  0  0  0  0  0  0  0  0  0
  1  2  2  0  0  0  0
  2  3  1  0  0  0  0
  2 11  1  0  0  0  0
  3  4  1  0  0  0  0
  4  5  2  0  0  0  0
  4  9  1  0  0  0  0
  5  6  1  0  0  0  0
  6  7  2  0  0  0  0
  7  8  1  0  0  0  0
  8  9  2  0  0  0  0
  9 10  1  0  0  0  0
 11 12  1  0  0  0  0
 12 13  2  0  0  0  0
 12 20  1  0  0  0  0
 13 14  1  0  0  0  0
 14 15  1  0  0  0  0
 14 18  2  0  0  0  0
 15 16  2  0  0  0  0
 16 17  1  0  0  0  0
 17 18  1  0  0  0  0
 18 19  1  0  0  0  0
 19 20  2  0  0  0  0
  3 21  1  0  0  0  0
  5 22  1  0  0  0  0
  7 23  1  0  0  0  0
  8 24  1  0  0  0  0
 10 25  1  0  0  0  0
 10 26  1  0  0  0  0
 10 27  1  0  0  0  0
 11 28  1  0  0  0  0
 11 29  1  0  0  0  0
 13 30  1  0  0  0  0
 16 31  1  0  0  0  0
 17 32  1  0  0  0  0
 19 33  1  0  0  0  0
 20 34  1  0  0  0  0
M  END
> <compound_name>
GAB-REV-70cc3ca5-18

> <provenance>
{"isomeric_smiles": "Cc1ccncc1NC(=O)Cc2ccc3c(c2)[nH]cn3", "inchi": "InChI=1S/C15H14N4O/c1-10-4-5-16-8-14(10)19-15(20)7-11-2-3-12-13(6-11)18-9-17-12/h2-6,8-9H,7H2,1H3,(H,17,18)(H,19,20)", "inchi_key": "NKCRZXILCCSPCY-UHFFFAOYSA-N", "fixed_inchi": "InChI=1/C15H14N4O/c1-10-4-5-16-8-14(10)19-15(20)7-11-2-3-12-13(6-11)18-9-17-12/h2-6,8-9H,7H2,1H3,(H,17,18)(H,19,20)/f/h18-19H", "fixed_inchikey": "NKCRZXILCCSPCY-VEWCPZSHNA-N"}

> <data_format>
sdf

$$$$
