LIG(A-306)
  -OEChem-06042511413D

 40 43  0     1  0  0  0  0  0999 V2000
   13.8530   -1.6426   21.3596 Cl  0  0  0  0  0  0  0  0  0  0  0  0
   12.5361   -1.0107   22.2928 C   0  0  0  0  0  0  0  0  0  0  0  0
   12.7441   -0.0378   23.2648 C   0  0  0  0  0  0  0  0  0  0  0  0
   14.3441    0.5054   23.6587 Cl  0  0  0  0  0  0  0  0  0  0  0  0
   11.6732    0.4961   23.9560 C   0  0  0  0  0  0  0  0  0  0  0  0
   11.2551   -1.4458   22.0139 C   0  0  0  0  0  0  0  0  0  0  0  0
   10.1581   -0.9059   22.6801 C   0  0  0  0  0  0  0  0  0  0  0  0
   10.3782    0.0650   23.6721 C   0  0  0  0  0  0  0  0  0  0  0  0
    9.3172    0.5829   24.3933 N   0  0  0  0  0  0  0  0  0  0  0  0
    7.9372    0.1358   24.2144 C   0  0  0  0  0  0  0  0  0  0  0  0
    7.8983   -1.2662   23.6313 C   0  0  0  0  0  0  0  0  0  0  0  0
    8.7451   -1.3280   22.3342 C   0  0  1  0  0  0  0  0  0  0  0  0
    8.2379   -0.3630   21.2593 C   0  0  0  0  0  0  0  0  0  0  0  0
    8.9268    0.5670   20.8353 O   0  0  0  0  0  0  0  0  0  0  0  0
    6.9489   -0.5321   20.9145 N   0  0  0  0  0  0  0  0  0  0  0  0
    6.2657   -0.1001   19.7696 C   0  0  0  0  0  0  0  0  0  0  0  0
    6.7666   -0.1050   18.4685 C   0  0  0  0  0  0  0  0  0  0  0  0
    6.2274    0.5320   17.4226 N   0  0  0  0  0  0  0  0  0  0  0  0
    5.1494    1.2619   17.6458 C   0  0  0  0  0  0  0  0  0  0  0  0
    5.1097    0.7068   20.0097 C   0  0  0  0  0  0  0  0  0  0  0  0
    4.6218    0.9707   21.3158 C   0  0  0  0  0  0  0  0  0  0  0  0
    3.6608    1.9126   21.4790 C   0  0  0  0  0  0  0  0  0  0  0  0
    3.2979    2.2445   22.7440 F   0  0  0  0  0  0  0  0  0  0  0  0
    4.5475    1.4198   18.9158 C   0  0  0  0  0  0  0  0  0  0  0  0
    3.5135    2.3527   19.1670 C   0  0  0  0  0  0  0  0  0  0  0  0
    3.0816    2.5936   20.4380 C   0  0  0  0  0  0  0  0  0  0  0  0
   11.8392    1.2463   24.7150 H   0  0  0  0  0  0  0  0  0  0  0  0
   11.1026   -2.2140   21.2702 H   0  0  0  0  0  0  0  0  0  0  0  0
    9.4105    1.5507   24.6272 H   0  0  0  0  0  0  0  0  0  0  0  0
    7.4285    0.1355   25.1896 H   0  0  0  0  0  0  0  0  0  0  0  0
    7.4199    0.8255   23.5312 H   0  0  0  0  0  0  0  0  0  0  0  0
    8.3052   -1.9769   24.3657 H   0  0  0  0  0  0  0  0  0  0  0  0
    6.8572   -1.5347   23.3991 H   0  0  0  0  0  0  0  0  0  0  0  0
    8.7442   -2.3560   21.9427 H   0  0  0  0  0  0  0  0  0  0  0  0
    6.3956   -1.0420   21.5731 H   0  0  0  0  0  0  0  0  0  0  0  0
    7.6680   -0.6722   18.2893 H   0  0  0  0  0  0  0  0  0  0  0  0
    4.6994    1.7700   16.8057 H   0  0  0  0  0  0  0  0  0  0  0  0
    5.0100    0.4298   22.1662 H   0  0  0  0  0  0  0  0  0  0  0  0
    3.0602    2.8809   18.3412 H   0  0  0  0  0  0  0  0  0  0  0  0
    2.2950    3.3102   20.6227 H   0  0  0  0  0  0  0  0  0  0  0  0
  1  2  1  0  0  0  0
  2  3  1  0  0  0  0
  2  6  2  0  0  0  0
  3  4  1  0  0  0  0
  3  5  2  0  0  0  0
  5  8  1  0  0  0  0
  5 27  1  0  0  0  0
  6  7  1  0  0  0  0
  6 28  1  0  0  0  0
  7  8  2  0  0  0  0
  7 12  1  0  0  0  0
  8  9  1  0  0  0  0
  9 10  1  0  0  0  0
  9 29  1  0  0  0  0
 10 11  1  0  0  0  0
 10 30  1  0  0  0  0
 10 31  1  0  0  0  0
 11 12  1  0  0  0  0
 11 32  1  0  0  0  0
 11 33  1  0  0  0  0
 12 13  1  0  0  0  0
 12 34  1  0  0  0  0
 13 14  2  0  0  0  0
 13 15  1  0  0  0  0
 15 16  1  0  0  0  0
 15 35  1  0  0  0  0
 16 17  2  0  0  0  0
 16 20  1  0  0  0  0
 17 18  1  0  0  0  0
 17 36  1  0  0  0  0
 18 19  2  0  0  0  0
 19 24  1  0  0  0  0
 19 37  1  0  0  0  0
 20 21  2  0  0  0  0
 20 24  1  0  0  0  0
 21 22  1  0  0  0  0
 21 38  1  0  0  0  0
 22 23  1  0  0  0  0
 22 26  2  0  0  0  0
 24 25  2  0  0  0  0
 25 26  1  0  0  0  0
 25 39  1  0  0  0  0
 26 40  1  0  0  0  0
M  END
> <compound_name>
ALP-UNI-8d415491-6

> <provenance>
{"isomeric_smiles": "c1cc2cncc(c2cc1F)NC(=O)[C@@H]3CCNc4c3cc(c(c4)Cl)Cl", "inchi": "InChI=1S/C19H14Cl2FN3O/c20-15-6-14-12(3-4-24-17(14)7-16(15)21)19(26)25-18-9-23-8-10-1-2-11(22)5-13(10)18/h1-2,5-9,12,24H,3-4H2,(H,25,26)/t12-/m1/s1", "inchi_key": "NUXDKRDLDDGPBW-GFCCVEGCSA-N", "fixed_inchi": "InChI=1/C19H14Cl2FN3O/c20-15-6-14-12(3-4-24-17(14)7-16(15)21)19(26)25-18-9-23-8-10-1-2-11(22)5-13(10)18/h1-2,5-9,12,24H,3-4H2,(H,25,26)/t12-/m1/s1/f/h25H", "fixed_inchikey": "NUXDKRDLDDGPBW-LMWNNXGBNA-N"}

> <data_format>
sdf

$$$$
