LIG(A-305)
  -OEChem-06042511373D

 40 43  0     1  0  0  0  0  0999 V2000
   13.9982   -1.7317   20.9044 Cl  0  0  0  0  0  0  0  0  0  0  0  0
   12.9723   -0.8666   22.0055 C   0  0  0  0  0  0  0  0  0  0  0  0
   13.5293    0.0574   22.8634 C   0  0  0  0  0  0  0  0  0  0  0  0
   12.7164    0.7144   23.7684 C   0  0  0  0  0  0  0  0  0  0  0  0
   11.6223   -1.1417   22.0096 C   0  0  0  0  0  0  0  0  0  0  0  0
   10.7873   -0.4727   22.8996 C   0  0  0  0  0  0  0  0  0  0  0  0
   11.3564    0.4434   23.7815 C   0  0  0  0  0  0  0  0  0  0  0  0
   10.6074    1.1204   24.7075 O   0  0  0  0  0  0  0  0  0  0  0  0
    9.5065    0.3514   25.2126 C   0  0  0  0  0  0  0  0  0  0  0  0
    8.5454   -0.0797   24.1287 C   0  0  0  0  0  0  0  0  0  0  0  0
    9.2833   -0.6447   22.8777 C   0  0  1  0  0  0  0  0  0  0  0  0
    8.7802    0.0683   21.6207 C   0  0  0  0  0  0  0  0  0  0  0  0
    9.3452    1.0573   21.1576 O   0  0  0  0  0  0  0  0  0  0  0  0
    7.6552   -0.4628   21.0948 N   0  0  0  0  0  0  0  0  0  0  0  0
    6.8911    0.0612   20.0258 C   0  0  0  0  0  0  0  0  0  0  0  0
    7.4121    0.0671   18.7348 C   0  0  0  0  0  0  0  0  0  0  0  0
    6.7890    0.6181   17.6898 N   0  0  0  0  0  0  0  0  0  0  0  0
    5.5890    1.1700   17.8999 C   0  0  0  0  0  0  0  0  0  0  0  0
    5.6321    0.6381   20.2289 C   0  0  0  0  0  0  0  0  0  0  0  0
    4.7642    0.7522   21.3239 N   0  0  0  0  0  0  0  0  0  0  0  0
    5.0143    0.3432   22.7049 C   0  0  0  0  0  0  0  0  0  0  0  0
    4.9721    1.1941   19.1469 C   0  0  0  0  0  0  0  0  0  0  0  0
    3.7311    1.6301   19.5920 N   0  0  0  0  0  0  0  0  0  0  0  0
    3.5872    1.3611   20.9220 C   0  0  0  0  0  0  0  0  0  0  0  0
    2.6162    1.5861   21.6290 O   0  0  0  0  0  0  0  0  0  0  0  0
   14.5885    0.2657   22.8290 H   0  0  0  0  0  0  0  0  0  0  0  0
   13.1363    1.4316   24.4583 H   0  0  0  0  0  0  0  0  0  0  0  0
   11.2145   -1.8719   21.3263 H   0  0  0  0  0  0  0  0  0  0  0  0
    9.9035   -0.5471   25.7076 H   0  0  0  0  0  0  0  0  0  0  0  0
    8.9585    0.9619   25.9455 H   0  0  0  0  0  0  0  0  0  0  0  0
    7.8836   -0.8603   24.5321 H   0  0  0  0  0  0  0  0  0  0  0  0
    7.9439    0.7890   23.8228 H   0  0  0  0  0  0  0  0  0  0  0  0
    9.0489   -1.7160   22.7925 H   0  0  0  0  0  0  0  0  0  0  0  0
    7.3285   -1.3149   21.5035 H   0  0  0  0  0  0  0  0  0  0  0  0
    8.3721   -0.3991   18.5692 H   0  0  0  0  0  0  0  0  0  0  0  0
    5.0747    1.6181   17.0625 H   0  0  0  0  0  0  0  0  0  0  0  0
    5.8845    0.8895   23.0978 H   0  0  0  0  0  0  0  0  0  0  0  0
    4.1310    0.5699   23.3200 H   0  0  0  0  0  0  0  0  0  0  0  0
    5.2154   -0.7378   22.7364 H   0  0  0  0  0  0  0  0  0  0  0  0
    3.0424    2.0764   19.0199 H   0  0  0  0  0  0  0  0  0  0  0  0
  1  2  1  0  0  0  0
  2  3  2  0  0  0  0
  2  5  1  0  0  0  0
  3  4  1  0  0  0  0
  3 26  1  0  0  0  0
  4  7  2  0  0  0  0
  4 27  1  0  0  0  0
  5  6  2  0  0  0  0
  5 28  1  0  0  0  0
  6  7  1  0  0  0  0
  6 11  1  0  0  0  0
  7  8  1  0  0  0  0
  8  9  1  0  0  0  0
  9 10  1  0  0  0  0
  9 29  1  0  0  0  0
  9 30  1  0  0  0  0
 10 11  1  0  0  0  0
 10 31  1  0  0  0  0
 10 32  1  0  0  0  0
 11 12  1  0  0  0  0
 11 33  1  0  0  0  0
 12 13  2  0  0  0  0
 12 14  1  0  0  0  0
 14 15  1  0  0  0  0
 14 34  1  0  0  0  0
 15 16  2  0  0  0  0
 15 19  1  0  0  0  0
 16 17  1  0  0  0  0
 16 35  1  0  0  0  0
 17 18  2  0  0  0  0
 18 22  1  0  0  0  0
 18 36  1  0  0  0  0
 19 20  1  0  0  0  0
 19 22  2  0  0  0  0
 20 21  1  0  0  0  0
 20 24  1  0  0  0  0
 21 37  1  0  0  0  0
 21 38  1  0  0  0  0
 21 39  1  0  0  0  0
 22 23  1  0  0  0  0
 23 24  1  0  0  0  0
 23 40  1  0  0  0  0
 24 25  2  0  0  0  0
M  END
> <compound_name>
EDG-MED-0e5afe9d-1

> <provenance>
{"isomeric_smiles": "Cn1c2c(cncc2NC(=O)[C@@H]3CCOc4c3cc(cc4)Cl)[nH]c1=O", "inchi": "InChI=1S/C17H15ClN4O3/c1-22-15-12(7-19-8-13(15)21-17(22)24)20-16(23)10-4-5-25-14-3-2-9(18)6-11(10)14/h2-3,6-8,10H,4-5H2,1H3,(H,20,23)(H,21,24)/t10-/m1/s1", "inchi_key": "YNHUBGVMTXFOMC-SNVBAGLBSA-N", "fixed_inchi": "InChI=1/C17H15ClN4O3/c1-22-15-12(7-19-8-13(15)21-17(22)24)20-16(23)10-4-5-25-14-3-2-9(18)6-11(10)14/h2-3,6-8,10H,4-5H2,1H3,(H,20,23)(H,21,24)/t10-/m1/s1/f/h20-21H", "fixed_inchikey": "YNHUBGVMTXFOMC-OAIREZDJNA-N"}

> <data_format>
sdf

$$$$
