LIG(A-305)
  -OEChem-06042511333D

 38 39  0     1  0  0  0  0  0999 V2000
   14.0092   -1.8006   21.4862 Cl  0  0  0  0  0  0  0  0  0  0  0  0
   12.9103   -0.6925   22.2533 C   0  0  0  0  0  0  0  0  0  0  0  0
   13.3974    0.4934   22.7663 C   0  0  0  0  0  0  0  0  0  0  0  0
   12.5045    1.3825   23.3444 C   0  0  0  0  0  0  0  0  0  0  0  0
   11.1565    1.0746   23.4134 C   0  0  0  0  0  0  0  0  0  0  0  0
   11.5682   -1.0164   22.3113 C   0  0  0  0  0  0  0  0  0  0  0  0
   10.6723   -0.1254   22.8954 C   0  0  0  0  0  0  0  0  0  0  0  0
    9.1723   -0.4272   22.9084 C   0  0  1  0  0  0  0  0  0  0  0  0
    8.9812   -1.8392   22.8823 O   0  0  0  0  0  0  0  0  0  0  0  0
    8.4964    0.1408   24.1764 C   0  0  0  0  0  0  0  0  0  0  0  0
    7.0654   -0.3301   24.3945 C   0  0  0  0  0  0  0  0  0  0  0  0
    8.5503    0.2329   21.6334 C   0  0  0  0  0  0  0  0  0  0  0  0
    8.9884    1.2989   21.2325 O   0  0  0  0  0  0  0  0  0  0  0  0
    7.5073   -0.4010   21.0524 N   0  0  0  0  0  0  0  0  0  0  0  0
    6.7553    0.1151   19.9685 C   0  0  0  0  0  0  0  0  0  0  0  0
    5.6213    0.9122   20.2256 C   0  0  0  0  0  0  0  0  0  0  0  0
    5.1134    1.1531   21.6236 C   0  0  0  0  0  0  0  0  0  0  0  0
    4.9884    1.4953   19.1326 C   0  0  0  0  0  0  0  0  0  0  0  0
    5.4853    1.2853   17.8636 C   0  0  0  0  0  0  0  0  0  0  0  0
    6.5492    0.5162   17.6045 N   0  0  0  0  0  0  0  0  0  0  0  0
    7.1572   -0.0609   18.6455 C   0  0  0  0  0  0  0  0  0  0  0  0
   14.4515    0.7235   22.7182 H   0  0  0  0  0  0  0  0  0  0  0  0
   12.8624    2.3202   23.7430 H   0  0  0  0  0  0  0  0  0  0  0  0
   10.4723    1.7720   23.8738 H   0  0  0  0  0  0  0  0  0  0  0  0
   11.2170   -1.9541   21.9065 H   0  0  0  0  0  0  0  0  0  0  0  0
    9.2405   -2.2098   23.7178 H   0  0  0  0  0  0  0  0  0  0  0  0
    9.0941   -0.1615   25.0490 H   0  0  0  0  0  0  0  0  0  0  0  0
    8.4890    1.2381   24.0995 H   0  0  0  0  0  0  0  0  0  0  0  0
    6.6663    0.1216   25.3146 H   0  0  0  0  0  0  0  0  0  0  0  0
    6.4451   -0.0264   23.5383 H   0  0  0  0  0  0  0  0  0  0  0  0
    7.0503   -1.4260   24.4878 H   0  0  0  0  0  0  0  0  0  0  0  0
    7.2483   -1.2970   21.4131 H   0  0  0  0  0  0  0  0  0  0  0  0
    5.8971    1.6435   22.2196 H   0  0  0  0  0  0  0  0  0  0  0  0
    4.2244    1.7998   21.5842 H   0  0  0  0  0  0  0  0  0  0  0  0
    4.8473    0.1920   22.0877 H   0  0  0  0  0  0  0  0  0  0  0  0
    4.1119    2.1095   19.2773 H   0  0  0  0  0  0  0  0  0  0  0  0
    4.9892    1.7674   17.0342 H   0  0  0  0  0  0  0  0  0  0  0  0
    8.0068   -0.6988   18.4508 H   0  0  0  0  0  0  0  0  0  0  0  0
  1  2  1  0  0  0  0
  2  3  2  0  0  0  0
  2  6  1  0  0  0  0
  3  4  1  0  0  0  0
  3 22  1  0  0  0  0
  4  5  2  0  0  0  0
  4 23  1  0  0  0  0
  5  7  1  0  0  0  0
  5 24  1  0  0  0  0
  6  7  2  0  0  0  0
  6 25  1  0  0  0  0
  7  8  1  0  0  0  0
  8  9  1  0  0  0  0
  8 10  1  0  0  0  0
  8 12  1  0  0  0  0
  9 26  1  0  0  0  0
 10 11  1  0  0  0  0
 10 27  1  0  0  0  0
 10 28  1  0  0  0  0
 11 29  1  0  0  0  0
 11 30  1  0  0  0  0
 11 31  1  0  0  0  0
 12 13  2  0  0  0  0
 12 14  1  0  0  0  0
 14 15  1  0  0  0  0
 14 32  1  0  0  0  0
 15 16  2  0  0  0  0
 15 21  1  0  0  0  0
 16 17  1  0  0  0  0
 16 18  1  0  0  0  0
 17 33  1  0  0  0  0
 17 34  1  0  0  0  0
 17 35  1  0  0  0  0
 18 19  2  0  0  0  0
 18 36  1  0  0  0  0
 19 20  1  0  0  0  0
 19 37  1  0  0  0  0
 20 21  2  0  0  0  0
 21 38  1  0  0  0  0
M  END
> <compound_name>
BAR-COM-0f94fc3d-38

> <provenance>
{"isomeric_smiles": "CC[C@](c1cccc(c1)Cl)(C(=O)Nc2cnccc2C)O", "inchi": "InChI=1S/C16H17ClN2O2/c1-3-16(21,12-5-4-6-13(17)9-12)15(20)19-14-10-18-8-7-11(14)2/h4-10,21H,3H2,1-2H3,(H,19,20)/t16-/m0/s1", "inchi_key": "NJXUEBRIEJJDBY-INIZCTEOSA-N", "fixed_inchi": "InChI=1/C16H17ClN2O2/c1-3-16(21,12-5-4-6-13(17)9-12)15(20)19-14-10-18-8-7-11(14)2/h4-10,21H,3H2,1-2H3,(H,19,20)/t16-/m0/s1/f/h19H", "fixed_inchikey": "NJXUEBRIEJJDBY-RAUYUUNWNA-N"}

> <data_format>
sdf

$$$$
