LIG(A-305)
  -OEChem-06042511363D

 31 33  0     0  0  0  0  0  0999 V2000
    9.1066    0.8991   21.2083 O   0  0  0  0  0  0  0  0  0  0  0  0
    8.6376   -0.1889   21.5353 C   0  0  0  0  0  0  0  0  0  0  0  0
    9.1047   -0.9369   22.7683 C   0  0  0  0  0  0  0  0  0  0  0  0
   10.5767   -0.6879   22.9872 C   0  0  0  0  0  0  0  0  0  0  0  0
   11.0109    0.2841   23.8781 C   0  0  0  0  0  0  0  0  0  0  0  0
   12.3529    0.6290   23.9530 C   0  0  0  0  0  0  0  0  0  0  0  0
   13.2828   -0.0020   23.1429 C   0  0  0  0  0  0  0  0  0  0  0  0
   11.5146   -1.3450   22.1991 C   0  0  0  0  0  0  0  0  0  0  0  0
   12.8447   -0.9930   22.2860 C   0  0  0  0  0  0  0  0  0  0  0  0
   13.9995   -1.8371   21.2959 Cl  0  0  0  0  0  0  0  0  0  0  0  0
    7.7095   -0.8419   20.7885 N   0  0  0  0  0  0  0  0  0  0  0  0
    7.1074   -0.3119   19.6795 C   0  0  0  0  0  0  0  0  0  0  0  0
    5.9555    0.4311   19.8156 N   0  0  0  0  0  0  0  0  0  0  0  0
    5.6624    0.8401   18.5186 C   0  0  0  0  0  0  0  0  0  0  0  0
    6.5733    0.3770   17.6725 N   0  0  0  0  0  0  0  0  0  0  0  0
    7.4973   -0.3600   18.4175 N   0  0  0  0  0  0  0  0  0  0  0  0
    5.1716    0.7892   20.8996 C   0  0  0  0  0  0  0  0  0  0  0  0
    4.0806    1.5602   20.7027 C   0  0  0  0  0  0  0  0  0  0  0  0
    3.7455    1.9952   19.3988 C   0  0  0  0  0  0  0  0  0  0  0  0
    4.5194    1.6481   18.3217 C   0  0  0  0  0  0  0  0  0  0  0  0
    8.5402   -0.5856   23.6447 H   0  0  0  0  0  0  0  0  0  0  0  0
    8.9329   -2.0145   22.6293 H   0  0  0  0  0  0  0  0  0  0  0  0
   10.2961    0.7773   24.5202 H   0  0  0  0  0  0  0  0  0  0  0  0
   12.6738    1.3929   24.6458 H   0  0  0  0  0  0  0  0  0  0  0  0
   14.3261    0.2744   23.1805 H   0  0  0  0  0  0  0  0  0  0  0  0
   11.2031   -2.1269   21.5225 H   0  0  0  0  0  0  0  0  0  0  0  0
    7.4502   -1.7670   21.0661 H   0  0  0  0  0  0  0  0  0  0  0  0
    5.4305    0.4548   21.8934 H   0  0  0  0  0  0  0  0  0  0  0  0
    3.4631    1.8451   21.5417 H   0  0  0  0  0  0  0  0  0  0  0  0
    2.8690    2.6084   19.2500 H   0  0  0  0  0  0  0  0  0  0  0  0
    4.2579    1.9893   17.3309 H   0  0  0  0  0  0  0  0  0  0  0  0
  1  2  2  0  0  0  0
  2  3  1  0  0  0  0
  2 11  1  0  0  0  0
  3  4  1  0  0  0  0
  3 21  1  0  0  0  0
  3 22  1  0  0  0  0
  4  5  2  0  0  0  0
  4  8  1  0  0  0  0
  5  6  1  0  0  0  0
  5 23  1  0  0  0  0
  6  7  2  0  0  0  0
  6 24  1  0  0  0  0
  7  9  1  0  0  0  0
  7 25  1  0  0  0  0
  8  9  2  0  0  0  0
  8 26  1  0  0  0  0
  9 10  1  0  0  0  0
 11 12  1  0  0  0  0
 11 27  1  0  0  0  0
 12 13  1  0  0  0  0
 12 16  2  0  0  0  0
 13 14  1  0  0  0  0
 13 17  1  0  0  0  0
 14 15  2  0  0  0  0
 14 20  1  0  0  0  0
 15 16  1  0  0  0  0
 17 18  2  0  0  0  0
 17 28  1  0  0  0  0
 18 19  1  0  0  0  0
 18 29  1  0  0  0  0
 19 20  2  0  0  0  0
 19 30  1  0  0  0  0
 20 31  1  0  0  0  0
M  END
> <compound_name>
PET-UNK-e44ffd04-1

> <provenance>
{"isomeric_smiles": "c1ccn2c(c1)nnc2NC(=O)Cc3cccc(c3)Cl", "inchi": "InChI=1S/C14H11ClN4O/c15-11-5-3-4-10(8-11)9-13(20)16-14-18-17-12-6-1-2-7-19(12)14/h1-8H,9H2,(H,16,18,20)", "inchi_key": "PICHRHZICCXQLR-UHFFFAOYSA-N", "fixed_inchi": "InChI=1/C14H11ClN4O/c15-11-5-3-4-10(8-11)9-13(20)16-14-18-17-12-6-1-2-7-19(12)14/h1-8H,9H2,(H,16,18,20)/f/h16H", "fixed_inchikey": "PICHRHZICCXQLR-WYUMXYHSNA-N"}

> <data_format>
sdf

$$$$
