LIG(A-305)
  -OEChem-06042511323D

 32 34  0     0  0  0  0  0  0999 V2000
   14.0073   -2.7001   23.7416 Cl  0  0  0  0  0  0  0  0  0  0  0  0
   12.9374   -1.3721   23.3947 C   0  0  0  0  0  0  0  0  0  0  0  0
   13.4005   -0.0831   23.5478 C   0  0  0  0  0  0  0  0  0  0  0  0
   12.5195    0.9700   23.3819 C   0  0  0  0  0  0  0  0  0  0  0  0
   11.1985    0.7330   23.0459 C   0  0  0  0  0  0  0  0  0  0  0  0
   11.6384   -1.6420   23.0048 C   0  0  0  0  0  0  0  0  0  0  0  0
   10.7614   -0.5739   22.8248 C   0  0  0  0  0  0  0  0  0  0  0  0
    9.4694   -0.7818   22.2619 N   0  0  0  0  0  0  0  0  0  0  0  0
    8.6353   -1.9448   22.5978 C   0  0  0  0  0  0  0  0  0  0  0  0
    7.3713   -1.7287   21.7919 C   0  0  0  0  0  0  0  0  0  0  0  0
    8.8634    0.0623   21.3559 C   0  0  0  0  0  0  0  0  0  0  0  0
    9.3134    1.1073   20.9340 O   0  0  0  0  0  0  0  0  0  0  0  0
    7.6414   -0.4916   21.0420 N   0  0  0  0  0  0  0  0  0  0  0  0
    6.7634    0.0185   20.0280 C   0  0  0  0  0  0  0  0  0  0  0  0
    5.5954    0.7225   20.3221 C   0  0  0  0  0  0  0  0  0  0  0  0
    5.0865    0.8895   21.7321 C   0  0  0  0  0  0  0  0  0  0  0  0
    7.1783   -0.0775   18.7020 C   0  0  0  0  0  0  0  0  0  0  0  0
    6.5253    0.4826   17.6800 N   0  0  0  0  0  0  0  0  0  0  0  0
    5.4054    1.1556   17.9691 C   0  0  0  0  0  0  0  0  0  0  0  0
    4.9124    1.2966   19.2531 C   0  0  0  0  0  0  0  0  0  0  0  0
   14.4357    0.1018   23.7936 H   0  0  0  0  0  0  0  0  0  0  0  0
   12.8652    1.9843   23.5155 H   0  0  0  0  0  0  0  0  0  0  0  0
   10.5070    1.5576   22.9549 H   0  0  0  0  0  0  0  0  0  0  0  0
   11.3106   -2.6582   22.8431 H   0  0  0  0  0  0  0  0  0  0  0  0
    8.8692   -2.7622   23.2638 H   0  0  0  0  0  0  0  0  0  0  0  0
    6.4807   -2.3392   21.7722 H   0  0  0  0  0  0  0  0  0  0  0  0
    5.8424    1.4132   22.3357 H   0  0  0  0  0  0  0  0  0  0  0  0
    4.1566    1.4769   21.7190 H   0  0  0  0  0  0  0  0  0  0  0  0
    4.8890   -0.1001   22.1700 H   0  0  0  0  0  0  0  0  0  0  0  0
    8.0779   -0.6356   18.4881 H   0  0  0  0  0  0  0  0  0  0  0  0
    4.8584    1.6123   17.1576 H   0  0  0  0  0  0  0  0  0  0  0  0
    4.0011    1.8498   19.4263 H   0  0  0  0  0  0  0  0  0  0  0  0
  1  2  1  0  0  0  0
  2  3  2  0  0  0  0
  2  6  1  0  0  0  0
  3  4  1  0  0  0  0
  3 21  1  0  0  0  0
  4  5  2  0  0  0  0
  4 22  1  0  0  0  0
  5  7  1  0  0  0  0
  5 23  1  0  0  0  0
  6  7  2  0  0  0  0
  6 24  1  0  0  0  0
  7  8  1  0  0  0  0
  8  9  1  0  0  0  0
  8 11  1  0  0  0  0
  9 10  2  0  0  0  0
  9 25  1  0  0  0  0
 10 13  1  0  0  0  0
 10 26  1  0  0  0  0
 11 12  2  0  0  0  0
 11 13  1  0  0  0  0
 13 14  1  0  0  0  0
 14 15  2  0  0  0  0
 14 17  1  0  0  0  0
 15 16  1  0  0  0  0
 15 20  1  0  0  0  0
 16 27  1  0  0  0  0
 16 28  1  0  0  0  0
 16 29  1  0  0  0  0
 17 18  2  0  0  0  0
 17 30  1  0  0  0  0
 18 19  1  0  0  0  0
 19 20  2  0  0  0  0
 19 31  1  0  0  0  0
 20 32  1  0  0  0  0
M  END
> <compound_name>
JAG-UCB-cedd89ab-1

> <provenance>
{"isomeric_smiles": "Cc1ccncc1n2ccn(c2=O)c3cccc(c3)Cl", "inchi": "InChI=1S/C15H12ClN3O/c1-11-5-6-17-10-14(11)19-8-7-18(15(19)20)13-4-2-3-12(16)9-13/h2-10H,1H3", "inchi_key": "NCRWUWJGTHEGCI-UHFFFAOYSA-N", "fixed_inchi": "InChI=1/C15H12ClN3O/c1-11-5-6-17-10-14(11)19-8-7-18(15(19)20)13-4-2-3-12(16)9-13/h2-10H,1H3", "fixed_inchikey": "NCRWUWJGTHEGCI-UHFFFAOYNA-N"}

> <data_format>
sdf

$$$$
