LIG(A-305)
  -OEChem-06042511363D

 40 41  0     1  0  0  0  0  0999 V2000
   14.0049   -1.9127   21.3914 Cl  0  0  0  0  0  0  0  0  0  0  0  0
   12.9079   -0.7557   22.0776 C   0  0  0  0  0  0  0  0  0  0  0  0
   13.3980    0.4463   22.5446 C   0  0  0  0  0  0  0  0  0  0  0  0
   12.5111    1.3533   23.1017 C   0  0  0  0  0  0  0  0  0  0  0  0
   11.1611    1.0453   23.1897 C   0  0  0  0  0  0  0  0  0  0  0  0
   11.5689   -1.0767   22.1586 C   0  0  0  0  0  0  0  0  0  0  0  0
   10.6770   -0.1717   22.7207 C   0  0  0  0  0  0  0  0  0  0  0  0
    9.1950   -0.5146   22.7648 C   0  0  1  0  0  0  0  0  0  0  0  0
    8.5571   -0.4287   24.1939 C   0  0  0  0  0  0  0  0  0  0  0  0
    8.9002    0.8613   24.9159 C   0  0  0  0  0  0  0  0  0  0  0  0
    7.0471   -0.6386   24.1740 C   0  0  0  0  0  0  0  0  0  0  0  0
    8.4579    0.2984   21.6999 C   0  0  0  0  0  0  0  0  0  0  0  0
    8.7829    1.4484   21.4269 O   0  0  0  0  0  0  0  0  0  0  0  0
    7.5039   -0.3755   21.0230 N   0  0  0  0  0  0  0  0  0  0  0  0
    6.7838    0.1595   19.9270 C   0  0  0  0  0  0  0  0  0  0  0  0
    5.6058    0.9045   20.1532 C   0  0  0  0  0  0  0  0  0  0  0  0
    5.0259    1.0885   21.5322 C   0  0  0  0  0  0  0  0  0  0  0  0
    4.9928    1.4796   19.0442 C   0  0  0  0  0  0  0  0  0  0  0  0
    5.5437    1.3026   17.7912 C   0  0  0  0  0  0  0  0  0  0  0  0
    6.6516    0.5926   17.5631 N   0  0  0  0  0  0  0  0  0  0  0  0
    7.2527    0.0306   18.6190 C   0  0  0  0  0  0  0  0  0  0  0  0
   14.4512    0.6756   22.4773 H   0  0  0  0  0  0  0  0  0  0  0  0
   12.8716    2.3030   23.4685 H   0  0  0  0  0  0  0  0  0  0  0  0
   10.4782    1.7585   23.6274 H   0  0  0  0  0  0  0  0  0  0  0  0
   11.2154   -2.0270   21.7869 H   0  0  0  0  0  0  0  0  0  0  0  0
    9.1116   -1.5685   22.4609 H   0  0  0  0  0  0  0  0  0  0  0  0
    8.9894   -1.2528   24.7803 H   0  0  0  0  0  0  0  0  0  0  0  0
    8.4265    0.8636   25.9086 H   0  0  0  0  0  0  0  0  0  0  0  0
    9.9915    0.9382   25.0304 H   0  0  0  0  0  0  0  0  0  0  0  0
    8.5316    1.7174   24.3319 H   0  0  0  0  0  0  0  0  0  0  0  0
    6.6531   -0.5683   25.1986 H   0  0  0  0  0  0  0  0  0  0  0  0
    6.5779    0.1338   23.5470 H   0  0  0  0  0  0  0  0  0  0  0  0
    6.8208   -1.6330   23.7617 H   0  0  0  0  0  0  0  0  0  0  0  0
    7.2929   -1.3090   21.3130 H   0  0  0  0  0  0  0  0  0  0  0  0
    5.7613    1.5941   22.1753 H   0  0  0  0  0  0  0  0  0  0  0  0
    4.1138    1.6999   21.4677 H   0  0  0  0  0  0  0  0  0  0  0  0
    4.7791    0.1057   21.9602 H   0  0  0  0  0  0  0  0  0  0  0  0
    4.0907    2.0613   19.1634 H   0  0  0  0  0  0  0  0  0  0  0  0
    5.0513    1.7641   16.9480 H   0  0  0  0  0  0  0  0  0  0  0  0
    8.1460   -0.5524   18.4499 H   0  0  0  0  0  0  0  0  0  0  0  0
  1  2  1  0  0  0  0
  2  3  2  0  0  0  0
  2  6  1  0  0  0  0
  3  4  1  0  0  0  0
  3 22  1  0  0  0  0
  4  5  2  0  0  0  0
  4 23  1  0  0  0  0
  5  7  1  0  0  0  0
  5 24  1  0  0  0  0
  6  7  2  0  0  0  0
  6 25  1  0  0  0  0
  7  8  1  0  0  0  0
  8  9  1  0  0  0  0
  8 12  1  0  0  0  0
  8 26  1  0  0  0  0
  9 10  1  0  0  0  0
  9 11  1  0  0  0  0
  9 27  1  0  0  0  0
 10 28  1  0  0  0  0
 10 29  1  0  0  0  0
 10 30  1  0  0  0  0
 11 31  1  0  0  0  0
 11 32  1  0  0  0  0
 11 33  1  0  0  0  0
 12 13  2  0  0  0  0
 12 14  1  0  0  0  0
 14 15  1  0  0  0  0
 14 34  1  0  0  0  0
 15 16  2  0  0  0  0
 15 21  1  0  0  0  0
 16 17  1  0  0  0  0
 16 18  1  0  0  0  0
 17 35  1  0  0  0  0
 17 36  1  0  0  0  0
 17 37  1  0  0  0  0
 18 19  2  0  0  0  0
 18 38  1  0  0  0  0
 19 20  1  0  0  0  0
 19 39  1  0  0  0  0
 20 21  2  0  0  0  0
 21 40  1  0  0  0  0
M  END
> <compound_name>
JAN-GHE-83b26c96-9

> <provenance>
{"isomeric_smiles": "Cc1ccncc1NC(=O)[C@@H](c2cccc(c2)Cl)C(C)C", "inchi": "InChI=1S/C17H19ClN2O/c1-11(2)16(13-5-4-6-14(18)9-13)17(21)20-15-10-19-8-7-12(15)3/h4-11,16H,1-3H3,(H,20,21)/t16-/m1/s1", "inchi_key": "AIEXTLCJBMNDNF-MRXNPFEDSA-N", "fixed_inchi": "InChI=1/C17H19ClN2O/c1-11(2)16(13-5-4-6-14(18)9-13)17(21)20-15-10-19-8-7-12(15)3/h4-11,16H,1-3H3,(H,20,21)/t16-/m1/s1/f/h20H", "fixed_inchikey": "AIEXTLCJBMNDNF-IDBVRDQVNA-N"}

> <data_format>
sdf

$$$$
