LIG(A-305)
  -OEChem-06042511363D

 29 30  0     0  0  0  0  0  0999 V2000
   13.6823   -1.7487   22.0394 Cl  0  0  0  0  0  0  0  0  0  0  0  0
   12.3894   -0.6696   22.4415 C   0  0  0  0  0  0  0  0  0  0  0  0
   12.6815    0.5224   23.0705 C   0  0  0  0  0  0  0  0  0  0  0  0
   11.6495    1.4124   23.3235 C   0  0  0  0  0  0  0  0  0  0  0  0
   10.3545    1.1105   22.9376 C   0  0  0  0  0  0  0  0  0  0  0  0
   11.1053   -1.0076   22.0686 C   0  0  0  0  0  0  0  0  0  0  0  0
   10.0844   -0.0975   22.3016 C   0  0  0  0  0  0  0  0  0  0  0  0
    8.7913   -0.4354   21.8697 N   0  0  0  0  0  0  0  0  0  0  0  0
    7.9333    0.3966   21.2618 C   0  0  0  0  0  0  0  0  0  0  0  0
    8.1974    1.5646   20.9858 O   0  0  0  0  0  0  0  0  0  0  0  0
    6.5913   -0.2033   20.9188 C   0  0  0  0  0  0  0  0  0  0  0  0
    6.2462    0.1907   19.5059 C   0  0  0  0  0  0  0  0  0  0  0  0
    5.3243    1.1378   19.0959 C   0  0  0  0  0  0  0  0  0  0  0  0
    4.4953    2.0498   19.9430 C   0  0  0  0  0  0  0  0  0  0  0  0
    6.8261   -0.2883   18.3518 C   0  0  0  0  0  0  0  0  0  0  0  0
    6.2471    0.3497   17.3329 N   0  0  0  0  0  0  0  0  0  0  0  0
    5.3062    1.2288   17.7609 N   0  0  0  0  0  0  0  0  0  0  0  0
   13.6949    0.7578   23.3603 H   0  0  0  0  0  0  0  0  0  0  0  0
   11.8567    2.3465   23.8244 H   0  0  0  0  0  0  0  0  0  0  0  0
    9.5554    1.8112   23.1299 H   0  0  0  0  0  0  0  0  0  0  0  0
   10.8989   -1.9607   21.6048 H   0  0  0  0  0  0  0  0  0  0  0  0
    8.4853   -1.3741   22.0287 H   0  0  0  0  0  0  0  0  0  0  0  0
    6.6422   -1.2993   20.9978 H   0  0  0  0  0  0  0  0  0  0  0  0
    5.8253    0.1788   21.6096 H   0  0  0  0  0  0  0  0  0  0  0  0
    5.1548    2.6903   20.5470 H   0  0  0  0  0  0  0  0  0  0  0  0
    3.8653    2.6786   19.2966 H   0  0  0  0  0  0  0  0  0  0  0  0
    3.8557    1.4514   20.6084 H   0  0  0  0  0  0  0  0  0  0  0  0
    7.6014   -1.0372   18.2846 H   0  0  0  0  0  0  0  0  0  0  0  0
    4.7244    1.8176   17.1990 H   0  0  0  0  0  0  0  0  0  0  0  0
  1  2  1  0  0  0  0
  2  3  2  0  0  0  0
  2  6  1  0  0  0  0
  3  4  1  0  0  0  0
  3 18  1  0  0  0  0
  4  5  2  0  0  0  0
  4 19  1  0  0  0  0
  5  7  1  0  0  0  0
  5 20  1  0  0  0  0
  6  7  2  0  0  0  0
  6 21  1  0  0  0  0
  7  8  1  0  0  0  0
  8  9  1  0  0  0  0
  8 22  1  0  0  0  0
  9 10  2  0  0  0  0
  9 11  1  0  0  0  0
 11 12  1  0  0  0  0
 11 23  1  0  0  0  0
 11 24  1  0  0  0  0
 12 13  2  0  0  0  0
 12 15  1  0  0  0  0
 13 14  1  0  0  0  0
 13 17  1  0  0  0  0
 14 25  1  0  0  0  0
 14 26  1  0  0  0  0
 14 27  1  0  0  0  0
 15 16  2  0  0  0  0
 15 28  1  0  0  0  0
 16 17  1  0  0  0  0
 17 29  1  0  0  0  0
M  END
> <compound_name>
MIC-UNK-66895286-3

> <provenance>
{"isomeric_smiles": "Cc1c(cn[nH]1)CC(=O)Nc2cccc(c2)Cl", "inchi": "InChI=1S/C12H12ClN3O/c1-8-9(7-14-16-8)5-12(17)15-11-4-2-3-10(13)6-11/h2-4,6-7H,5H2,1H3,(H,14,16)(H,15,17)", "inchi_key": "BYGPKLOEYHRCEP-UHFFFAOYSA-N", "fixed_inchi": "InChI=1/C12H12ClN3O/c1-8-9(7-14-16-8)5-12(17)15-11-4-2-3-10(13)6-11/h2-4,6-7H,5H2,1H3,(H,14,16)(H,15,17)/f/h15-16H", "fixed_inchikey": "BYGPKLOEYHRCEP-LUXCBXFANA-N"}

> <data_format>
sdf

$$$$
