LIG(A-306)
  -OEChem-06042511403D

 66 71  0     1  0  0  0  0  0999 V2000
    9.3464    1.4097   20.9364 O   0  0  0  0  0  0  0  0  0  0  0  0
    8.8596    0.4797   21.5644 C   0  0  0  0  0  0  0  0  0  0  0  0
    7.6886   -0.1065   21.2006 N   0  0  0  0  0  0  0  0  0  0  0  0
    6.9104    0.1844   20.0507 C   0  0  0  0  0  0  0  0  0  0  0  0
    5.7293    0.9823   20.2009 C   0  0  0  0  0  0  0  0  0  0  0  0
    5.2265    1.4182   21.4540 C   0  0  0  0  0  0  0  0  0  0  0  0
    4.1074    2.1971   21.5302 C   0  0  0  0  0  0  0  0  0  0  0  0
    3.4351    2.5850   20.3783 C   0  0  0  0  0  0  0  0  0  0  0  0
    3.8800    2.1920   19.1482 C   0  0  0  0  0  0  0  0  0  0  0  0
    5.0341    1.3792   19.0250 C   0  0  0  0  0  0  0  0  0  0  0  0
    5.5459    0.9442   17.7759 C   0  0  0  0  0  0  0  0  0  0  0  0
    6.6240    0.1844   17.6368 N   0  0  0  0  0  0  0  0  0  0  0  0
    7.2752   -0.1795   18.7517 C   0  0  0  0  0  0  0  0  0  0  0  0
    9.5538   -0.0563   22.8353 C   0  0  2  0  0  0  0  0  0  0  0  0
    8.9429    0.7577   24.0004 C   0  0  0  0  0  0  0  0  0  0  0  0
    9.5798    2.1267   24.1233 C   0  0  0  0  0  0  0  0  0  0  0  0
   11.0038    2.0389   24.3141 O   0  0  0  0  0  0  0  0  0  0  0  0
   11.0758    0.1679   22.7521 C   0  0  0  0  0  0  0  0  0  0  0  0
   11.6798    1.2430   23.4220 C   0  0  0  0  0  0  0  0  0  0  0  0
   13.0337    1.5112   23.2928 C   0  0  0  0  0  0  0  0  0  0  0  0
   13.8177    0.6883   22.5057 C   0  0  0  0  0  0  0  0  0  0  0  0
   11.8878   -0.6660   21.9800 C   0  0  0  0  0  0  0  0  0  0  0  0
   13.2367   -0.3868   21.8638 C   0  0  0  0  0  0  0  0  0  0  0  0
   14.2137   -1.3777   20.8156 Cl  0  0  0  0  0  0  0  0  0  0  0  0
    9.2511   -1.5673   22.9654 C   0  0  0  0  0  0  0  0  0  0  0  0
    9.9023   -2.2942   24.1263 C   0  0  0  0  0  0  0  0  0  0  0  0
   10.6384   -1.7401   24.9362 O   0  0  0  0  0  0  0  0  0  0  0  0
    9.6485   -3.6232   24.2173 N   0  0  0  0  0  0  0  0  0  0  0  0
   10.1768   -4.4702   25.3032 C   0  0  2  0  0  0  0  0  0  0  0  0
    9.8849   -5.8902   24.8133 C   0  0  0  0  0  0  0  0  0  0  0  0
    8.7027   -5.7474   23.8745 C   0  0  0  0  0  0  0  0  0  0  0  0
    8.8694   -4.3963   23.2294 C   0  0  0  0  0  0  0  0  0  0  0  0
    9.6269   -4.1662   26.7043 C   0  0  0  0  0  0  0  0  0  0  0  0
    8.1770   -4.3534   26.7865 N   0  0  0  0  0  0  0  0  0  0  0  0
    7.2208   -3.5545   26.2657 C   0  0  0  0  0  0  0  0  0  0  0  0
    6.0129   -4.0397   26.4459 N   0  0  0  0  0  0  0  0  0  0  0  0
    6.2081   -5.2147   27.1398 C   0  0  0  0  0  0  0  0  0  0  0  0
    7.5272   -5.4205   27.3606 C   0  0  0  0  0  0  0  0  0  0  0  0
    7.3381   -0.8190   21.8085 H   0  0  0  0  0  0  0  0  0  0  0  0
    5.7364    1.1297   22.3612 H   0  0  0  0  0  0  0  0  0  0  0  0
    3.7415    2.5145   22.4954 H   0  0  0  0  0  0  0  0  0  0  0  0
    2.5528    3.2029   20.4560 H   0  0  0  0  0  0  0  0  0  0  0  0
    3.3475    2.5036   18.2617 H   0  0  0  0  0  0  0  0  0  0  0  0
    5.0248    1.2513   16.8812 H   0  0  0  0  0  0  0  0  0  0  0  0
    8.1499   -0.8025   18.6363 H   0  0  0  0  0  0  0  0  0  0  0  0
    7.8646    0.8810   23.8218 H   0  0  0  0  0  0  0  0  0  0  0  0
    9.0983    0.2068   24.9398 H   0  0  0  0  0  0  0  0  0  0  0  0
    9.3782    2.6969   23.2045 H   0  0  0  0  0  0  0  0  0  0  0  0
    9.1369    2.6495   24.9839 H   0  0  0  0  0  0  0  0  0  0  0  0
   13.4725    2.3560   23.8028 H   0  0  0  0  0  0  0  0  0  0  0  0
   14.8739    0.8846   22.3942 H   0  0  0  0  0  0  0  0  0  0  0  0
   11.4647   -1.5230   21.4771 H   0  0  0  0  0  0  0  0  0  0  0  0
    8.1619   -1.6814   23.0692 H   0  0  0  0  0  0  0  0  0  0  0  0
    9.5840   -2.0552   22.0374 H   0  0  0  0  0  0  0  0  0  0  0  0
   11.2693   -4.3468   25.3397 H   0  0  0  0  0  0  0  0  0  0  0  0
   10.7545   -6.3013   24.2797 H   0  0  0  0  0  0  0  0  0  0  0  0
    9.6298   -6.5459   25.6588 H   0  0  0  0  0  0  0  0  0  0  0  0
    8.7163   -6.5420   23.1139 H   0  0  0  0  0  0  0  0  0  0  0  0
    7.7575   -5.7927   24.4352 H   0  0  0  0  0  0  0  0  0  0  0  0
    9.4173   -4.4815   22.2793 H   0  0  0  0  0  0  0  0  0  0  0  0
    7.8917   -3.9263   23.0480 H   0  0  0  0  0  0  0  0  0  0  0  0
   10.1116   -4.8384   27.4277 H   0  0  0  0  0  0  0  0  0  0  0  0
    9.8636   -3.1224   26.9581 H   0  0  0  0  0  0  0  0  0  0  0  0
    7.4255   -2.6231   25.7589 H   0  0  0  0  0  0  0  0  0  0  0  0
    5.4191   -5.8779   27.4621 H   0  0  0  0  0  0  0  0  0  0  0  0
    7.9775   -6.2528   27.8813 H   0  0  0  0  0  0  0  0  0  0  0  0
  1  2  2  0  0  0  0
  2  3  1  0  0  0  0
  2 14  1  0  0  0  0
  3  4  1  0  0  0  0
  3 39  1  0  0  0  0
  4  5  2  0  0  0  0
  4 13  1  0  0  0  0
  5  6  1  0  0  0  0
  5 10  1  0  0  0  0
  6  7  2  0  0  0  0
  6 40  1  0  0  0  0
  7  8  1  0  0  0  0
  7 41  1  0  0  0  0
  8  9  2  0  0  0  0
  8 42  1  0  0  0  0
  9 10  1  0  0  0  0
  9 43  1  0  0  0  0
 10 11  2  0  0  0  0
 11 12  1  0  0  0  0
 11 44  1  0  0  0  0
 12 13  2  0  0  0  0
 13 45  1  0  0  0  0
 14 15  1  0  0  0  0
 14 18  1  0  0  0  0
 14 25  1  0  0  0  0
 15 16  1  0  0  0  0
 15 46  1  0  0  0  0
 15 47  1  0  0  0  0
 16 17  1  0  0  0  0
 16 48  1  0  0  0  0
 16 49  1  0  0  0  0
 17 19  1  0  0  0  0
 18 19  2  0  0  0  0
 18 22  1  0  0  0  0
 19 20  1  0  0  0  0
 20 21  2  0  0  0  0
 20 50  1  0  0  0  0
 21 23  1  0  0  0  0
 21 51  1  0  0  0  0
 22 23  2  0  0  0  0
 22 52  1  0  0  0  0
 23 24  1  0  0  0  0
 25 26  1  0  0  0  0
 25 53  1  0  0  0  0
 25 54  1  0  0  0  0
 26 27  2  0  0  0  0
 26 28  1  0  0  0  0
 28 29  1  0  0  0  0
 28 32  1  0  0  0  0
 29 30  1  0  0  0  0
 29 33  1  0  0  0  0
 29 55  1  0  0  0  0
 30 31  1  0  0  0  0
 30 56  1  0  0  0  0
 30 57  1  0  0  0  0
 31 32  1  0  0  0  0
 31 58  1  0  0  0  0
 31 59  1  0  0  0  0
 32 60  1  0  0  0  0
 32 61  1  0  0  0  0
 33 34  1  0  0  0  0
 33 62  1  0  0  0  0
 33 63  1  0  0  0  0
 34 35  1  0  0  0  0
 34 38  1  0  0  0  0
 35 36  2  0  0  0  0
 35 64  1  0  0  0  0
 36 37  1  0  0  0  0
 37 38  2  0  0  0  0
 37 65  1  0  0  0  0
 38 66  1  0  0  0  0
M  END
> <compound_name>
EDG-MED-ba1ac7b9-21

> <provenance>
{"isomeric_smiles": "c1ccc2c(c1)cncc2NC(=O)[C@@]3(CCOc4c3cc(cc4)Cl)CC(=O)N5CCC[C@@H]5Cn6ccnc6", "inchi": "InChI=1S/C29H28ClN5O3/c30-21-7-8-26-24(14-21)29(9-13-38-26,28(37)33-25-17-32-16-20-4-1-2-6-23(20)25)15-27(36)35-11-3-5-22(35)18-34-12-10-31-19-34/h1-2,4,6-8,10,12,14,16-17,19,22H,3,5,9,11,13,15,18H2,(H,33,37)/t22-,29+/m1/s1", "inchi_key": "BEMREGHUYXDNTR-MNNSJKJDSA-N", "fixed_inchi": "InChI=1/C29H28ClN5O3/c30-21-7-8-26-24(14-21)29(9-13-38-26,28(37)33-25-17-32-16-20-4-1-2-6-23(20)25)15-27(36)35-11-3-5-22(35)18-34-12-10-31-19-34/h1-2,4,6-8,10,12,14,16-17,19,22H,3,5,9,11,13,15,18H2,(H,33,37)/t22-,29+/m1/s1/f/h33H", "fixed_inchikey": "BEMREGHUYXDNTR-RZLZYKBINA-N"}

> <data_format>
sdf

$$$$
