LIG(A-306)
  -OEChem-06042511413D

 50 53  0     1  0  0  0  0  0999 V2000
   14.0522   -1.6266   21.4376 Cl  0  0  0  0  0  0  0  0  0  0  0  0
   12.8262   -0.8327   22.3818 C   0  0  0  0  0  0  0  0  0  0  0  0
   11.5022   -1.1707   22.1850 C   0  0  0  0  0  0  0  0  0  0  0  0
   13.1973    0.1403   23.2828 C   0  0  0  0  0  0  0  0  0  0  0  0
   12.2163    0.7852   24.0120 C   0  0  0  0  0  0  0  0  0  0  0  0
   10.8683    0.4611   23.8511 C   0  0  0  0  0  0  0  0  0  0  0  0
    9.8494    1.0901   24.7733 C   0  0  0  0  0  0  0  0  0  0  0  0
    8.4804    0.8920   24.2884 N   0  0  0  0  0  0  0  0  0  0  0  0
    7.4564    1.7189   24.6376 C   0  0  0  0  0  0  0  0  0  0  0  0
    6.4004    1.2988   25.0777 O   0  0  0  0  0  0  0  0  0  0  0  0
    7.6853    3.0469   24.4776 N   0  0  0  0  0  0  0  0  0  0  0  0
    7.7704    3.9569   25.6226 C   0  0  0  0  0  0  0  0  0  0  0  0
    7.8631    3.6570   23.1636 C   0  0  0  0  0  0  0  0  0  0  0  0
   10.5063   -0.5128   22.9071 C   0  0  0  0  0  0  0  0  0  0  0  0
    9.0423   -0.8369   22.6713 C   0  0  1  0  0  0  0  0  0  0  0  0
    8.2184   -0.5000   23.9144 C   0  0  0  0  0  0  0  0  0  0  0  0
    8.5121   -0.0119   21.4954 C   0  0  0  0  0  0  0  0  0  0  0  0
    9.0410    1.0432   21.1454 O   0  0  0  0  0  0  0  0  0  0  0  0
    7.3910   -0.5099   20.9145 N   0  0  0  0  0  0  0  0  0  0  0  0
    6.6419    0.0551   19.8586 C   0  0  0  0  0  0  0  0  0  0  0  0
    5.5429    0.9170   20.1748 C   0  0  0  0  0  0  0  0  0  0  0  0
    5.1020    1.1819   21.4968 C   0  0  0  0  0  0  0  0  0  0  0  0
    4.0630    2.0389   21.7340 C   0  0  0  0  0  0  0  0  0  0  0  0
    3.4108    2.6729   20.6791 C   0  0  0  0  0  0  0  0  0  0  0  0
    3.7977    2.4489   19.3871 C   0  0  0  0  0  0  0  0  0  0  0  0
    4.8697    1.5640   19.0979 C   0  0  0  0  0  0  0  0  0  0  0  0
    5.3196    1.2971   17.7838 C   0  0  0  0  0  0  0  0  0  0  0  0
    6.3286    0.4872   17.4907 N   0  0  0  0  0  0  0  0  0  0  0  0
    6.9637   -0.1068   18.5106 C   0  0  0  0  0  0  0  0  0  0  0  0
   11.2387   -1.9409   21.4753 H   0  0  0  0  0  0  0  0  0  0  0  0
   14.2381    0.3953   23.4175 H   0  0  0  0  0  0  0  0  0  0  0  0
   12.4975    1.5527   24.7180 H   0  0  0  0  0  0  0  0  0  0  0  0
    9.9432    0.6353   25.7704 H   0  0  0  0  0  0  0  0  0  0  0  0
   10.0500    2.1695   24.8422 H   0  0  0  0  0  0  0  0  0  0  0  0
    7.9601    4.9798   25.2655 H   0  0  0  0  0  0  0  0  0  0  0  0
    6.8227    3.9334   26.1807 H   0  0  0  0  0  0  0  0  0  0  0  0
    8.5922    3.6406   26.2819 H   0  0  0  0  0  0  0  0  0  0  0  0
    8.0348    4.7372   23.2805 H   0  0  0  0  0  0  0  0  0  0  0  0
    8.7288    3.2005   22.6617 H   0  0  0  0  0  0  0  0  0  0  0  0
    6.9596    3.4929   22.5580 H   0  0  0  0  0  0  0  0  0  0  0  0
    8.9354   -1.9075   22.4422 H   0  0  0  0  0  0  0  0  0  0  0  0
    8.5066   -1.1659   24.7411 H   0  0  0  0  0  0  0  0  0  0  0  0
    7.1482   -0.6294   23.6954 H   0  0  0  0  0  0  0  0  0  0  0  0
    7.0558   -1.3797   21.2768 H   0  0  0  0  0  0  0  0  0  0  0  0
    5.5942    0.6997   22.3285 H   0  0  0  0  0  0  0  0  0  0  0  0
    3.7450    2.2258   22.7491 H   0  0  0  0  0  0  0  0  0  0  0  0
    2.5924    3.3472   20.8836 H   0  0  0  0  0  0  0  0  0  0  0  0
    3.2837    2.9492   18.5797 H   0  0  0  0  0  0  0  0  0  0  0  0
    4.8087    1.7840   16.9663 H   0  0  0  0  0  0  0  0  0  0  0  0
    7.7884   -0.7615   18.2704 H   0  0  0  0  0  0  0  0  0  0  0  0
  1  2  1  0  0  0  0
  2  3  2  0  0  0  0
  2  4  1  0  0  0  0
  3 14  1  0  0  0  0
  3 30  1  0  0  0  0
  4  5  2  0  0  0  0
  4 31  1  0  0  0  0
  5  6  1  0  0  0  0
  5 32  1  0  0  0  0
  6  7  1  0  0  0  0
  6 14  2  0  0  0  0
  7  8  1  0  0  0  0
  7 33  1  0  0  0  0
  7 34  1  0  0  0  0
  8  9  1  0  0  0  0
  8 16  1  0  0  0  0
  9 10  2  0  0  0  0
  9 11  1  0  0  0  0
 11 12  1  0  0  0  0
 11 13  1  0  0  0  0
 12 35  1  0  0  0  0
 12 36  1  0  0  0  0
 12 37  1  0  0  0  0
 13 38  1  0  0  0  0
 13 39  1  0  0  0  0
 13 40  1  0  0  0  0
 14 15  1  0  0  0  0
 15 16  1  0  0  0  0
 15 17  1  0  0  0  0
 15 41  1  0  0  0  0
 16 42  1  0  0  0  0
 16 43  1  0  0  0  0
 17 18  2  0  0  0  0
 17 19  1  0  0  0  0
 19 20  1  0  0  0  0
 19 44  1  0  0  0  0
 20 21  2  0  0  0  0
 20 29  1  0  0  0  0
 21 22  1  0  0  0  0
 21 26  1  0  0  0  0
 22 23  2  0  0  0  0
 22 45  1  0  0  0  0
 23 24  1  0  0  0  0
 23 46  1  0  0  0  0
 24 25  2  0  0  0  0
 24 47  1  0  0  0  0
 25 26  1  0  0  0  0
 25 48  1  0  0  0  0
 26 27  2  0  0  0  0
 27 28  1  0  0  0  0
 27 49  1  0  0  0  0
 28 29  2  0  0  0  0
 29 50  1  0  0  0  0
M  END
> <compound_name>
MAT-POS-4223bc15-18

> <provenance>
{"isomeric_smiles": "CN(C)C(=O)N1Cc2ccc(cc2[C@@H](C1)C(=O)Nc3cncc4c3cccc4)Cl", "inchi": "InChI=1S/C22H21ClN4O2/c1-26(2)22(29)27-12-15-7-8-16(23)9-18(15)19(13-27)21(28)25-20-11-24-10-14-5-3-4-6-17(14)20/h3-11,19H,12-13H2,1-2H3,(H,25,28)/t19-/m1/s1", "inchi_key": "GYXPARZCBIHWKB-LJQANCHMSA-N", "fixed_inchi": "InChI=1/C22H21ClN4O2/c1-26(2)22(29)27-12-15-7-8-16(23)9-18(15)19(13-27)21(28)25-20-11-24-10-14-5-3-4-6-17(14)20/h3-11,19H,12-13H2,1-2H3,(H,25,28)/t19-/m1/s1/f/h25H", "fixed_inchikey": "GYXPARZCBIHWKB-FFLKVTLYNA-N"}

> <data_format>
sdf

$$$$
