LIG(A-305)
  -OEChem-06042511323D

 20 20  0     0  0  0  0  0  0999 V2000
    8.5359   -0.0765   27.4375 C   0  0  0  0  0  0  0  0  0  0  0  0
    9.0907   -0.6236   26.1404 C   0  0  0  0  0  0  0  0  0  0  0  0
   11.0516   -0.2607   24.6303 C   0  0  0  0  0  0  0  0  0  0  0  0
   10.6955   -1.3907   23.9053 C   0  0  0  0  0  0  0  0  0  0  0  0
   11.4824   -1.8048   22.8493 C   0  0  0  0  0  0  0  0  0  0  0  0
   12.6144   -1.0719   22.5412 C   0  0  0  0  0  0  0  0  0  0  0  0
   13.5063   -1.5120   21.3881 C   0  0  0  0  0  0  0  0  0  0  0  0
   12.9135    0.0501   23.3111 C   0  0  0  0  0  0  0  0  0  0  0  0
   10.2267    0.1794   25.7293 N   0  0  0  0  0  0  0  0  0  0  0  0
   14.1872   -1.8150   20.5311 N   0  0  0  0  0  0  0  0  0  0  0  0
   12.1346    0.4272   24.3242 N   0  0  0  0  0  0  0  0  0  0  0  0
    7.6740   -0.6828   27.7528 H   0  0  0  0  0  0  0  0  0  0  0  0
    9.3141   -0.1141   28.2139 H   0  0  0  0  0  0  0  0  0  0  0  0
    8.2163    0.9655   27.2888 H   0  0  0  0  0  0  0  0  0  0  0  0
    9.4112   -1.6654   26.2881 H   0  0  0  0  0  0  0  0  0  0  0  0
    8.3134   -0.5857   25.3631 H   0  0  0  0  0  0  0  0  0  0  0  0
    9.8056   -1.9439   24.1670 H   0  0  0  0  0  0  0  0  0  0  0  0
   11.2199   -2.6818   22.2762 H   0  0  0  0  0  0  0  0  0  0  0  0
   13.7970    0.6274   23.0815 H   0  0  0  0  0  0  0  0  0  0  0  0
   10.7012    0.6690   26.4608 H   0  0  0  0  0  0  0  0  0  0  0  0
  1  2  1  0  0  0  0
  1 12  1  0  0  0  0
  1 13  1  0  0  0  0
  1 14  1  0  0  0  0
  2  9  1  0  0  0  0
  2 15  1  0  0  0  0
  2 16  1  0  0  0  0
  3  4  2  0  0  0  0
  3  9  1  0  0  0  0
  3 11  1  0  0  0  0
  4  5  1  0  0  0  0
  4 17  1  0  0  0  0
  5  6  2  0  0  0  0
  5 18  1  0  0  0  0
  6  7  1  0  0  0  0
  6  8  1  0  0  0  0
  7 10  3  0  0  0  0
  8 11  2  0  0  0  0
  8 19  1  0  0  0  0
  9 20  1  0  0  0  0
M  END
> <compound_name>
AAR-POS-d2a4d1df-5

> <provenance>
{"isomeric_smiles": "CCNc1ccc(cn1)C#N", "inchi": "InChI=1S/C8H9N3/c1-2-10-8-4-3-7(5-9)6-11-8/h3-4,6H,2H2,1H3,(H,10,11)", "inchi_key": "MVJDUNKELBBNKM-UHFFFAOYSA-N", "fixed_inchi": "InChI=1/C8H9N3/c1-2-10-8-4-3-7(5-9)6-11-8/h3-4,6H,2H2,1H3,(H,10,11)/f/h10H", "fixed_inchikey": "MVJDUNKELBBNKM-KZFATGLANA-N"}

> <data_format>
sdf

$$$$
