LIG(A-305)
  -OEChem-06042511353D

 27 28  0     1  0  0  0  0  0999 V2000
    9.4458   -5.4556   26.2710 C   0  0  0  0  0  0  0  0  0  0  0  0
    9.2078   -4.0756   25.6409 C   0  0  0  0  0  0  0  0  0  0  0  0
    9.0758   -2.0986   24.1539 C   0  0  0  0  0  0  0  0  0  0  0  0
    9.1448   -1.0916   22.9889 C   0  0  0  0  0  0  0  0  0  0  0  0
   10.6129    0.2734   23.8089 C   0  0  0  0  0  0  0  0  0  0  0  0
   11.9349    1.1733   23.3879 C   0  0  0  0  0  0  0  0  0  0  0  0
   12.9598    0.4203   22.9148 C   0  0  0  0  0  0  0  0  0  0  0  0
   12.6338   -0.8467   22.1298 C   0  0  0  0  0  0  0  0  0  0  0  0
   11.4058   -1.5007   22.4199 C   0  0  0  0  0  0  0  0  0  0  0  0
   13.6198   -1.5687   21.5768 F   0  0  0  0  0  0  0  0  0  0  0  0
    8.6439   -3.0006   26.2960 N   0  0  0  0  0  0  0  0  0  0  0  0
    8.5579   -1.8206   25.4070 N   0  0  0  0  0  0  0  0  0  0  0  0
   10.2688   -0.5236   22.8719 N   0  3  1  0  0  0  0  0  0  0  0  0
    9.5948   -3.6566   24.0989 S   0  0  0  0  0  0  0  0  0  0  0  0
    8.4854   -5.8801   26.5988 H   0  0  0  0  0  0  0  0  0  0  0  0
    9.9072   -6.1230   25.5281 H   0  0  0  0  0  0  0  0  0  0  0  0
   10.1158   -5.3525   27.1373 H   0  0  0  0  0  0  0  0  0  0  0  0
    8.9281   -1.6280   22.0533 H   0  0  0  0  0  0  0  0  0  0  0  0
    8.3805   -0.3178   23.1534 H   0  0  0  0  0  0  0  0  0  0  0  0
   10.8525   -0.3142   24.7074 H   0  0  0  0  0  0  0  0  0  0  0  0
    9.7744    0.9511   24.0269 H   0  0  0  0  0  0  0  0  0  0  0  0
   11.6373    1.8898   22.6081 H   0  0  0  0  0  0  0  0  0  0  0  0
   12.2831    1.7213   24.2757 H   0  0  0  0  0  0  0  0  0  0  0  0
   13.9848    0.7117   23.0903 H   0  0  0  0  0  0  0  0  0  0  0  0
   11.0710   -2.0296   21.5154 H   0  0  0  0  0  0  0  0  0  0  0  0
   11.5808   -2.2280   23.2264 H   0  0  0  0  0  0  0  0  0  0  0  0
   10.1725    0.0630   22.0678 H   0  0  0  0  0  0  0  0  0  0  0  0
  1  2  1  0  0  0  0
  1 15  1  0  0  0  0
  1 16  1  0  0  0  0
  1 17  1  0  0  0  0
  2 11  2  0  0  0  0
  2 14  1  0  0  0  0
  3  4  1  0  0  0  0
  3 12  2  0  0  0  0
  3 14  1  0  0  0  0
  4 13  1  0  0  0  0
  4 18  1  0  0  0  0
  4 19  1  0  0  0  0
  5  6  1  0  0  0  0
  5 13  1  0  0  0  0
  5 20  1  0  0  0  0
  5 21  1  0  0  0  0
  6  7  1  0  0  0  0
  6 22  1  0  0  0  0
  6 23  1  0  0  0  0
  7  8  2  0  0  0  0
  7 24  1  0  0  0  0
  8  9  1  0  0  0  0
  8 10  1  0  0  0  0
  9 13  1  0  0  0  0
  9 25  1  0  0  0  0
  9 26  1  0  0  0  0
 11 12  1  0  0  0  0
 13 27  1  0  0  0  0
M  CHG  1  13   1
M  END
> <compound_name>
AAR-POS-d2a4d1df-8

> <provenance>
{"isomeric_smiles": "Cc1nnc(s1)C[N@H+]2CCC=C(C2)F", "inchi": "InChI=1S/C9H12FN3S/c1-7-11-12-9(14-7)6-13-4-2-3-8(10)5-13/h3H,2,4-6H2,1H3/p+1", "inchi_key": "WRJUIVWNZADJJL-UHFFFAOYSA-O", "fixed_inchi": "InChI=1/C9H12FN3S/c1-7-11-12-9(14-7)6-13-4-2-3-8(10)5-13/h3H,2,4-6H2,1H3/p+1/fC9H13FN3S/h13H/q+1", "fixed_inchikey": "WRJUIVWNZADJJL-DJHNCKBANA-O"}

> <data_format>
sdf

$$$$
