LIG(A-305)
  -OEChem-06042511363D

 42 44  0     0  0  0  0  0  0999 V2000
    5.5414   -2.6976   20.7645 O   0  0  0  0  0  0  0  0  0  0  0  0
    6.2734   -1.7157   20.6955 C   0  0  0  0  0  0  0  0  0  0  0  0
    5.9774   -0.5677   19.7745 C   0  0  0  0  0  0  0  0  0  0  0  0
    4.9945    0.4024   20.1055 C   0  0  0  0  0  0  0  0  0  0  0  0
    4.3954    0.5264   21.3885 C   0  0  0  0  0  0  0  0  0  0  0  0
    3.4455    1.4754   21.6294 C   0  0  0  0  0  0  0  0  0  0  0  0
    3.0415    2.3414   20.6284 C   0  0  0  0  0  0  0  0  0  0  0  0
    3.5975    2.2774   19.3854 C   0  0  0  0  0  0  0  0  0  0  0  0
    4.5935    1.3134   19.0894 C   0  0  0  0  0  0  0  0  0  0  0  0
    5.2275    1.2123   17.8295 C   0  0  0  0  0  0  0  0  0  0  0  0
    6.1635    0.3173   17.5335 N   0  0  0  0  0  0  0  0  0  0  0  0
    6.5094   -0.5557   18.4865 C   0  0  0  0  0  0  0  0  0  0  0  0
    7.3524   -1.5707   21.4665 N   0  0  0  0  0  0  0  0  0  0  0  0
    7.6714   -2.5247   22.5205 C   0  0  0  0  0  0  0  0  0  0  0  0
    9.1454   -2.5537   22.8116 C   0  0  0  0  0  0  0  0  0  0  0  0
    9.6374   -1.2177   22.6205 O   0  0  0  0  0  0  0  0  0  0  0  0
   10.9714   -0.9757   22.8135 C   0  0  0  0  0  0  0  0  0  0  0  0
   11.3034    0.3483   23.1735 C   0  0  0  0  0  0  0  0  0  0  0  0
   10.2374    1.1873   23.3595 O   0  0  0  0  0  0  0  0  0  0  0  0
   10.5105    2.5403   23.7225 C   0  0  0  0  0  0  0  0  0  0  0  0
   11.9764   -1.9068   22.5986 C   0  0  0  0  0  0  0  0  0  0  0  0
   13.3014   -1.5258   22.7306 C   0  0  0  0  0  0  0  0  0  0  0  0
   13.6294   -0.2268   23.0835 C   0  0  0  0  0  0  0  0  0  0  0  0
   12.6374    0.7152   23.3025 C   0  0  0  0  0  0  0  0  0  0  0  0
    4.6964   -0.1398   22.1835 H   0  0  0  0  0  0  0  0  0  0  0  0
    3.0039    1.5518   22.6120 H   0  0  0  0  0  0  0  0  0  0  0  0
    2.2772    3.0761   20.8343 H   0  0  0  0  0  0  0  0  0  0  0  0
    3.2762    2.9675   18.6193 H   0  0  0  0  0  0  0  0  0  0  0  0
    4.9316    1.9077   17.0579 H   0  0  0  0  0  0  0  0  0  0  0  0
    7.2510   -1.3014   18.2410 H   0  0  0  0  0  0  0  0  0  0  0  0
    7.9570   -0.7882   21.3174 H   0  0  0  0  0  0  0  0  0  0  0  0
    7.1322   -2.2391   23.4358 H   0  0  0  0  0  0  0  0  0  0  0  0
    7.3500   -3.5278   22.2036 H   0  0  0  0  0  0  0  0  0  0  0  0
    9.3193   -2.8757   23.8489 H   0  0  0  0  0  0  0  0  0  0  0  0
    9.6528   -3.2452   22.1230 H   0  0  0  0  0  0  0  0  0  0  0  0
    9.5635    3.0882   23.8360 H   0  0  0  0  0  0  0  0  0  0  0  0
   11.0619    2.5604   24.6741 H   0  0  0  0  0  0  0  0  0  0  0  0
   11.1169    3.0153   22.9372 H   0  0  0  0  0  0  0  0  0  0  0  0
   11.7274   -2.9228   22.3299 H   0  0  0  0  0  0  0  0  0  0  0  0
   14.0858   -2.2476   22.5569 H   0  0  0  0  0  0  0  0  0  0  0  0
   14.6670    0.0538   23.1889 H   0  0  0  0  0  0  0  0  0  0  0  0
   12.8992    1.7279   23.5716 H   0  0  0  0  0  0  0  0  0  0  0  0
  1  2  2  0  0  0  0
  2  3  1  0  0  0  0
  2 13  1  0  0  0  0
  3  4  2  0  0  0  0
  3 12  1  0  0  0  0
  4  5  1  0  0  0  0
  4  9  1  0  0  0  0
  5  6  2  0  0  0  0
  5 25  1  0  0  0  0
  6  7  1  0  0  0  0
  6 26  1  0  0  0  0
  7  8  2  0  0  0  0
  7 27  1  0  0  0  0
  8  9  1  0  0  0  0
  8 28  1  0  0  0  0
  9 10  2  0  0  0  0
 10 11  1  0  0  0  0
 10 29  1  0  0  0  0
 11 12  2  0  0  0  0
 12 30  1  0  0  0  0
 13 14  1  0  0  0  0
 13 31  1  0  0  0  0
 14 15  1  0  0  0  0
 14 32  1  0  0  0  0
 14 33  1  0  0  0  0
 15 16  1  0  0  0  0
 15 34  1  0  0  0  0
 15 35  1  0  0  0  0
 16 17  1  0  0  0  0
 17 18  2  0  0  0  0
 17 21  1  0  0  0  0
 18 19  1  0  0  0  0
 18 24  1  0  0  0  0
 19 20  1  0  0  0  0
 20 36  1  0  0  0  0
 20 37  1  0  0  0  0
 20 38  1  0  0  0  0
 21 22  2  0  0  0  0
 21 39  1  0  0  0  0
 22 23  1  0  0  0  0
 22 40  1  0  0  0  0
 23 24  2  0  0  0  0
 23 41  1  0  0  0  0
 24 42  1  0  0  0  0
M  END
> <compound_name>
MAR-UCB-f313ec4d-2

> <provenance>
{"isomeric_smiles": "COc1ccccc1OCCNC(=O)c2cncc3c2cccc3", "inchi": "InChI=1S/C19H18N2O3/c1-23-17-8-4-5-9-18(17)24-11-10-21-19(22)16-13-20-12-14-6-2-3-7-15(14)16/h2-9,12-13H,10-11H2,1H3,(H,21,22)", "inchi_key": "SWRAJWUUCVFLBR-UHFFFAOYSA-N", "fixed_inchi": "InChI=1/C19H18N2O3/c1-23-17-8-4-5-9-18(17)24-11-10-21-19(22)16-13-20-12-14-6-2-3-7-15(14)16/h2-9,12-13H,10-11H2,1H3,(H,21,22)/f/h21H", "fixed_inchikey": "SWRAJWUUCVFLBR-PKSOQXRJNA-N"}

> <data_format>
sdf

$$$$
