LIG(A-306)
  -OEChem-06042511413D

 41 43  0     0  0  0  0  0  0999 V2000
   13.9813   -1.2615   21.4714 Cl  0  0  0  0  0  0  0  0  0  0  0  0
   12.6496   -0.8027   22.4950 C   0  0  0  0  0  0  0  0  0  0  0  0
   12.8678    0.0886   23.5255 C   0  0  0  0  0  0  0  0  0  0  0  0
   11.7909    0.4831   24.3008 C   0  0  0  0  0  0  0  0  0  0  0  0
   10.5197    0.0003   24.0277 C   0  0  0  0  0  0  0  0  0  0  0  0
   11.3924   -1.3025   22.2208 C   0  0  0  0  0  0  0  0  0  0  0  0
   10.3015   -0.8729   22.9693 C   0  0  0  0  0  0  0  0  0  0  0  0
    8.8976   -1.2276   22.5379 C   0  0  0  0  0  0  0  0  0  0  0  0
    8.2907   -0.1836   21.6213 C   0  0  0  0  0  0  0  0  0  0  0  0
    8.8899    0.8496   21.3203 O   0  0  0  0  0  0  0  0  0  0  0  0
    7.0758   -0.5104   21.1359 N   0  0  0  0  0  0  0  0  0  0  0  0
    6.4237    0.0147   20.0087 C   0  0  0  0  0  0  0  0  0  0  0  0
    6.8218   -0.2436   18.6983 C   0  0  0  0  0  0  0  0  0  0  0  0
    6.2496    0.2792   17.6051 N   0  0  0  0  0  0  0  0  0  0  0  0
    5.2315    1.1096   17.7845 C   0  0  0  0  0  0  0  0  0  0  0  0
    4.7076    1.4674   19.0505 C   0  0  0  0  0  0  0  0  0  0  0  0
    5.3137    0.8922   20.2015 C   0  0  0  0  0  0  0  0  0  0  0  0
    4.7838    1.2280   21.4753 C   0  0  0  0  0  0  0  0  0  0  0  0
    3.7377    2.0967   21.5970 C   0  0  0  0  0  0  0  0  0  0  0  0
    3.6287    2.3640   19.2163 C   0  0  0  0  0  0  0  0  0  0  0  0
    3.1547    2.6857   20.4661 C   0  0  0  0  0  0  0  0  0  0  0  0
    2.0289    3.6624   20.6213 C   0  0  0  0  0  0  0  0  0  0  0  0
    1.6219    3.9787   21.7360 O   0  0  0  0  0  0  0  0  0  0  0  0
    1.4576    4.1183   19.5057 N   0  0  0  0  0  0  0  0  0  0  0  0
    0.1139    4.6704   19.4999 C   0  0  0  0  0  0  0  0  0  0  0  0
   13.8584    0.4707   23.7232 H   0  0  0  0  0  0  0  0  0  0  0  0
   11.9411    1.1693   25.1212 H   0  0  0  0  0  0  0  0  0  0  0  0
    9.6889    0.3071   24.6456 H   0  0  0  0  0  0  0  0  0  0  0  0
   11.2564   -2.0239   21.4287 H   0  0  0  0  0  0  0  0  0  0  0  0
    8.9244   -2.1905   22.0068 H   0  0  0  0  0  0  0  0  0  0  0  0
    8.2661   -1.3204   23.4338 H   0  0  0  0  0  0  0  0  0  0  0  0
    6.5773   -1.2145   21.6417 H   0  0  0  0  0  0  0  0  0  0  0  0
    7.6543   -0.9159   18.5529 H   0  0  0  0  0  0  0  0  0  0  0  0
    4.7717    1.5413   16.9078 H   0  0  0  0  0  0  0  0  0  0  0  0
    5.2153    0.7888   22.3626 H   0  0  0  0  0  0  0  0  0  0  0  0
    3.3538    2.3336   22.5783 H   0  0  0  0  0  0  0  0  0  0  0  0
    3.1674    2.8049   18.3449 H   0  0  0  0  0  0  0  0  0  0  0  0
    1.9696    4.0790   18.6476 H   0  0  0  0  0  0  0  0  0  0  0  0
   -0.1507    4.9818   18.4786 H   0  0  0  0  0  0  0  0  0  0  0  0
   -0.5977    3.9063   19.8460 H   0  0  0  0  0  0  0  0  0  0  0  0
    0.0723    5.5410   20.1709 H   0  0  0  0  0  0  0  0  0  0  0  0
  1  2  1  0  0  0  0
  2  3  2  0  0  0  0
  2  6  1  0  0  0  0
  3  4  1  0  0  0  0
  3 26  1  0  0  0  0
  4  5  2  0  0  0  0
  4 27  1  0  0  0  0
  5  7  1  0  0  0  0
  5 28  1  0  0  0  0
  6  7  2  0  0  0  0
  6 29  1  0  0  0  0
  7  8  1  0  0  0  0
  8  9  1  0  0  0  0
  8 30  1  0  0  0  0
  8 31  1  0  0  0  0
  9 10  2  0  0  0  0
  9 11  1  0  0  0  0
 11 12  1  0  0  0  0
 11 32  1  0  0  0  0
 12 13  2  0  0  0  0
 12 17  1  0  0  0  0
 13 14  1  0  0  0  0
 13 33  1  0  0  0  0
 14 15  2  0  0  0  0
 15 16  1  0  0  0  0
 15 34  1  0  0  0  0
 16 17  2  0  0  0  0
 16 20  1  0  0  0  0
 17 18  1  0  0  0  0
 18 19  2  0  0  0  0
 18 35  1  0  0  0  0
 19 21  1  0  0  0  0
 19 36  1  0  0  0  0
 20 21  2  0  0  0  0
 20 37  1  0  0  0  0
 21 22  1  0  0  0  0
 22 23  2  0  0  0  0
 22 24  1  0  0  0  0
 24 25  1  0  0  0  0
 24 38  1  0  0  0  0
 25 39  1  0  0  0  0
 25 40  1  0  0  0  0
 25 41  1  0  0  0  0
M  END
> <compound_name>
MAT-POS-90fd5f68-2

> <provenance>
{"isomeric_smiles": "CNC(=O)c1ccc2c(c1)cncc2NC(=O)Cc3cccc(c3)Cl", "inchi": "InChI=1S/C19H16ClN3O2/c1-21-19(25)13-5-6-16-14(9-13)10-22-11-17(16)23-18(24)8-12-3-2-4-15(20)7-12/h2-7,9-11H,8H2,1H3,(H,21,25)(H,23,24)", "inchi_key": "YTZPJQXEGVHVLU-UHFFFAOYSA-N", "fixed_inchi": "InChI=1/C19H16ClN3O2/c1-21-19(25)13-5-6-16-14(9-13)10-22-11-17(16)23-18(24)8-12-3-2-4-15(20)7-12/h2-7,9-11H,8H2,1H3,(H,21,25)(H,23,24)/f/h21,23H", "fixed_inchikey": "YTZPJQXEGVHVLU-NPQUBYNZNA-N"}

> <data_format>
sdf

$$$$
