LIG(A-306)
  -OEChem-06042511433D

 47 50  0     1  0  0  0  0  0999 V2000
    9.4463    1.3675   21.2003 O   0  0  0  0  0  0  0  0  0  0  0  0
    9.1212    0.2898   21.6770 C   0  0  0  0  0  0  0  0  0  0  0  0
    9.9660   -0.3696   22.7946 C   0  0  2  0  0  0  0  0  0  0  0  0
   11.2039    0.4833   23.0966 C   0  0  0  0  0  0  0  0  0  0  0  0
   11.0116    1.7217   23.7088 C   0  0  0  0  0  0  0  0  0  0  0  0
   12.0635    2.6141   23.7940 C   0  0  0  0  0  0  0  0  0  0  0  0
   11.7640    4.2005   24.4400 Cl  0  0  0  0  0  0  0  0  0  0  0  0
   13.3258    2.3027   23.3362 C   0  0  0  0  0  0  0  0  0  0  0  0
   13.5530    1.0610   22.7759 C   0  0  0  0  0  0  0  0  0  0  0  0
   12.5011    0.1637   22.6597 C   0  0  0  0  0  0  0  0  0  0  0  0
   12.8497   -1.3924   21.9359 S   0  0  0  0  0  0  0  0  0  0  0  0
   13.6848   -1.2035   20.7886 O   0  0  0  0  0  0  0  0  0  0  0  0
   13.2810   -2.3014   22.9533 O   0  0  0  0  0  0  0  0  0  0  0  0
   11.3796   -1.8698   21.4268 N   0  0  0  0  0  0  0  0  0  0  0  0
   10.3569   -1.8279   22.4792 C   0  0  0  0  0  0  0  0  0  0  0  0
    9.0314   -0.3487   24.0209 C   0  0  0  0  0  0  0  0  0  0  0  0
    8.0396   -0.4058   21.2478 N   0  0  0  0  0  0  0  0  0  0  0  0
    7.1942   -0.0197   20.1739 C   0  0  0  0  0  0  0  0  0  0  0  0
    6.0268    0.7447   20.3870 C   0  0  0  0  0  0  0  0  0  0  0  0
    5.6320    1.1636   21.7861 C   0  0  0  0  0  0  0  0  0  0  0  0
    4.1739    1.5801   21.8915 C   0  0  0  0  0  0  0  0  0  0  0  0
    3.8137    2.5534   20.7874 C   0  0  0  0  0  0  0  0  0  0  0  0
    3.9891    1.9218   19.4243 C   0  0  0  0  0  0  0  0  0  0  0  0
    5.2734    1.1428   19.2711 C   0  0  0  0  0  0  0  0  0  0  0  0
    5.7303    0.7771   18.0192 C   0  0  0  0  0  0  0  0  0  0  0  0
    6.8328    0.0559   17.7963 N   0  0  0  0  0  0  0  0  0  0  0  0
    7.5402   -0.3379   18.8622 C   0  0  0  0  0  0  0  0  0  0  0  0
   10.0452    1.9821   24.1144 H   0  0  0  0  0  0  0  0  0  0  0  0
   14.1279    3.0215   23.4147 H   0  0  0  0  0  0  0  0  0  0  0  0
   14.5404    0.7909   22.4315 H   0  0  0  0  0  0  0  0  0  0  0  0
   11.1069   -1.6521   20.4896 H   0  0  0  0  0  0  0  0  0  0  0  0
    9.4657   -2.3763   22.1401 H   0  0  0  0  0  0  0  0  0  0  0  0
   10.7543   -2.3010   23.3893 H   0  0  0  0  0  0  0  0  0  0  0  0
    9.5449   -0.8017   24.8818 H   0  0  0  0  0  0  0  0  0  0  0  0
    8.7631    0.6910   24.2597 H   0  0  0  0  0  0  0  0  0  0  0  0
    8.1189   -0.9204   23.7961 H   0  0  0  0  0  0  0  0  0  0  0  0
    7.8200   -1.2571   21.7244 H   0  0  0  0  0  0  0  0  0  0  0  0
    5.8051    0.3175   22.4674 H   0  0  0  0  0  0  0  0  0  0  0  0
    6.2621    2.0130   22.0888 H   0  0  0  0  0  0  0  0  0  0  0  0
    3.5365    0.6876   21.8082 H   0  0  0  0  0  0  0  0  0  0  0  0
    4.0055    2.0613   22.8663 H   0  0  0  0  0  0  0  0  0  0  0  0
    2.7646    2.8611   20.9083 H   0  0  0  0  0  0  0  0  0  0  0  0
    4.4656    3.4365   20.8605 H   0  0  0  0  0  0  0  0  0  0  0  0
    3.1460    1.2374   19.2486 H   0  0  0  0  0  0  0  0  0  0  0  0
    3.9764    2.7207   18.6682 H   0  0  0  0  0  0  0  0  0  0  0  0
    5.1566    1.0964   17.1617 H   0  0  0  0  0  0  0  0  0  0  0  0
    8.4257   -0.9337   18.6969 H   0  0  0  0  0  0  0  0  0  0  0  0
  1  2  2  0  0  0  0
  2  3  1  0  0  0  0
  2 17  1  0  0  0  0
  3  4  1  0  0  0  0
  3 15  1  0  0  0  0
  3 16  1  0  0  0  0
  4  5  2  0  0  0  0
  4 10  1  0  0  0  0
  5  6  1  0  0  0  0
  5 28  1  0  0  0  0
  6  7  1  0  0  0  0
  6  8  2  0  0  0  0
  8  9  1  0  0  0  0
  8 29  1  0  0  0  0
  9 10  2  0  0  0  0
  9 30  1  0  0  0  0
 10 11  1  0  0  0  0
 11 12  2  0  0  0  0
 11 13  2  0  0  0  0
 11 14  1  0  0  0  0
 14 15  1  0  0  0  0
 14 31  1  0  0  0  0
 15 32  1  0  0  0  0
 15 33  1  0  0  0  0
 16 34  1  0  0  0  0
 16 35  1  0  0  0  0
 16 36  1  0  0  0  0
 17 18  1  0  0  0  0
 17 37  1  0  0  0  0
 18 19  2  0  0  0  0
 18 27  1  0  0  0  0
 19 20  1  0  0  0  0
 19 24  1  0  0  0  0
 20 21  1  0  0  0  0
 20 38  1  0  0  0  0
 20 39  1  0  0  0  0
 21 22  1  0  0  0  0
 21 40  1  0  0  0  0
 21 41  1  0  0  0  0
 22 23  1  0  0  0  0
 22 42  1  0  0  0  0
 22 43  1  0  0  0  0
 23 24  1  0  0  0  0
 23 44  1  0  0  0  0
 23 45  1  0  0  0  0
 24 25  2  0  0  0  0
 25 26  1  0  0  0  0
 25 46  1  0  0  0  0
 26 27  2  0  0  0  0
 27 47  1  0  0  0  0
M  END
> <compound_name>
MIK-ENA-5d9157e9-6

> <provenance>
{"isomeric_smiles": "C[C@@]1(CNS(=O)(=O)c2c1cc(cc2)Cl)C(=O)Nc3cncc4c3CCCC4", "inchi": "InChI=1S/C19H20ClN3O3S/c1-19(11-22-27(25,26)17-7-6-13(20)8-15(17)19)18(24)23-16-10-21-9-12-4-2-3-5-14(12)16/h6-10,22H,2-5,11H2,1H3,(H,23,24)/t19-/m0/s1", "inchi_key": "OLOUVJHSJAVGMH-IBGZPJMESA-N", "fixed_inchi": "InChI=1/C19H20ClN3O3S/c1-19(11-22-27(25,26)17-7-6-13(20)8-15(17)19)18(24)23-16-10-21-9-12-4-2-3-5-14(12)16/h6-10,22H,2-5,11H2,1H3,(H,23,24)/t19-/m0/s1/f/h23H", "fixed_inchikey": "OLOUVJHSJAVGMH-VUGPQIQDNA-N"}

> <data_format>
sdf

$$$$
