LIG(A-305)
  -OEChem-06042511353D

 49 52  0     0  0  0  0  0  0999 V2000
    9.0103    1.5211   21.1464 O   0  0  0  0  0  0  0  0  0  0  0  0
    8.9113    0.4442   21.7114 C   0  0  0  0  0  0  0  0  0  0  0  0
    8.2494   -0.7489   21.0185 C   0  0  0  0  0  0  0  0  0  0  0  0
    7.3283   -0.3259   19.9855 N   0  0  0  0  0  0  0  0  0  0  0  0
    6.1943    0.4241   20.0775 C   0  0  0  0  0  0  0  0  0  0  0  0
    5.3763    0.7981   21.1334 C   0  0  0  0  0  0  0  0  0  0  0  0
    4.2533    1.5621   20.8394 C   0  0  0  0  0  0  0  0  0  0  0  0
    3.9693    1.9431   19.5254 C   0  0  0  0  0  0  0  0  0  0  0  0
    4.8073    1.5761   18.4774 C   0  0  0  0  0  0  0  0  0  0  0  0
    5.9283    0.8031   18.7634 C   0  0  0  0  0  0  0  0  0  0  0  0
    6.9073    0.2811   17.9495 N   0  0  0  0  0  0  0  0  0  0  0  0
    7.7413   -0.3909   18.6935 N   0  0  0  0  0  0  0  0  0  0  0  0
    9.3824    0.2342   22.9744 N   0  0  0  0  0  0  0  0  0  0  0  0
    9.9454    1.3682   23.7024 C   0  0  0  0  0  0  0  0  0  0  0  0
   11.3823    1.5822   23.3784 C   0  0  0  0  0  0  0  0  0  0  0  0
   11.8543    2.7832   22.9944 N   0  0  0  0  0  0  0  0  0  0  0  0
   13.1983    2.7332   22.7614 N   0  0  0  0  0  0  0  0  0  0  0  0
   13.5453    1.4752   22.9954 C   0  0  0  0  0  0  0  0  0  0  0  0
   12.4464    0.7152   23.3884 C   0  0  0  0  0  0  0  0  0  0  0  0
    9.3094   -1.0248   23.6385 C   0  0  0  0  0  0  0  0  0  0  0  0
   10.1714   -2.0618   23.2955 C   0  0  0  0  0  0  0  0  0  0  0  0
   10.0844   -3.2818   23.9395 C   0  0  0  0  0  0  0  0  0  0  0  0
    8.3604   -1.2268   24.6295 C   0  0  0  0  0  0  0  0  0  0  0  0
    8.2834   -2.4378   25.2905 C   0  0  0  0  0  0  0  0  0  0  0  0
    9.1474   -3.4898   24.9655 C   0  0  0  0  0  0  0  0  0  0  0  0
    9.0974   -4.6848   25.6516 N   0  0  0  0  0  0  0  0  0  0  0  0
    8.0274   -4.9777   26.5976 C   0  0  0  0  0  0  0  0  0  0  0  0
    9.9964   -5.7778   25.3256 C   0  0  0  0  0  0  0  0  0  0  0  0
    9.0309   -1.3756   20.5641 H   0  0  0  0  0  0  0  0  0  0  0  0
    7.6986   -1.3357   21.7683 H   0  0  0  0  0  0  0  0  0  0  0  0
    5.6041    0.5060   22.1479 H   0  0  0  0  0  0  0  0  0  0  0  0
    3.5914    1.8654   21.6371 H   0  0  0  0  0  0  0  0  0  0  0  0
    3.0867    2.5308   19.3205 H   0  0  0  0  0  0  0  0  0  0  0  0
    4.5927    1.8841   17.4648 H   0  0  0  0  0  0  0  0  0  0  0  0
    9.3827    2.2753   23.4367 H   0  0  0  0  0  0  0  0  0  0  0  0
    9.8491    1.1801   24.7819 H   0  0  0  0  0  0  0  0  0  0  0  0
   13.7935    3.4842   22.4755 H   0  0  0  0  0  0  0  0  0  0  0  0
   14.5493    1.0900   22.8945 H   0  0  0  0  0  0  0  0  0  0  0  0
   12.4340   -0.3335   23.6463 H   0  0  0  0  0  0  0  0  0  0  0  0
   10.9113   -1.9129   22.5230 H   0  0  0  0  0  0  0  0  0  0  0  0
   10.7452   -4.0855   23.6503 H   0  0  0  0  0  0  0  0  0  0  0  0
    7.6763   -0.4315   24.8865 H   0  0  0  0  0  0  0  0  0  0  0  0
    7.5466   -2.5743   26.0683 H   0  0  0  0  0  0  0  0  0  0  0  0
    8.1815   -5.9783   27.0279 H   0  0  0  0  0  0  0  0  0  0  0  0
    8.0340   -4.2277   27.4022 H   0  0  0  0  0  0  0  0  0  0  0  0
    7.0591   -4.9480   26.0765 H   0  0  0  0  0  0  0  0  0  0  0  0
    9.7909   -6.6321   25.9874 H   0  0  0  0  0  0  0  0  0  0  0  0
    9.8423   -6.0794   24.2790 H   0  0  0  0  0  0  0  0  0  0  0  0
   11.0373   -5.4497   25.4631 H   0  0  0  0  0  0  0  0  0  0  0  0
  1  2  2  0  0  0  0
  2  3  1  0  0  0  0
  2 13  1  0  0  0  0
  3  4  1  0  0  0  0
  4  5  1  0  0  0  0
  4 12  1  0  0  0  0
  5  6  2  0  0  0  0
  5 10  1  0  0  0  0
  6  7  1  0  0  0  0
  7  8  2  0  0  0  0
  8  9  1  0  0  0  0
  9 10  2  0  0  0  0
 10 11  1  0  0  0  0
 11 12  2  0  0  0  0
 13 14  1  0  0  0  0
 13 20  1  0  0  0  0
 14 15  1  0  0  0  0
 15 16  2  0  0  0  0
 15 19  1  0  0  0  0
 16 17  1  0  0  0  0
 17 18  1  0  0  0  0
 18 19  2  0  0  0  0
 20 21  2  0  0  0  0
 20 23  1  0  0  0  0
 21 22  1  0  0  0  0
 22 25  2  0  0  0  0
 23 24  2  0  0  0  0
 24 25  1  0  0  0  0
 25 26  1  0  0  0  0
 26 27  1  0  0  0  0
 26 28  1  0  0  0  0
  3 29  1  0  0  0  0
  3 30  1  0  0  0  0
  6 31  1  0  0  0  0
  7 32  1  0  0  0  0
  8 33  1  0  0  0  0
  9 34  1  0  0  0  0
 14 35  1  0  0  0  0
 14 36  1  0  0  0  0
 17 37  1  0  0  0  0
 18 38  1  0  0  0  0
 19 39  1  0  0  0  0
 21 40  1  0  0  0  0
 22 41  1  0  0  0  0
 23 42  1  0  0  0  0
 24 43  1  0  0  0  0
 27 44  1  0  0  0  0
 27 45  1  0  0  0  0
 27 46  1  0  0  0  0
 28 47  1  0  0  0  0
 28 48  1  0  0  0  0
 28 49  1  0  0  0  0
M  END
> <compound_name>
PET-UNK-7374c256-2

> <provenance>
{"isomeric_smiles": "CN(C)c1ccc(cc1)N(Cc2ccn[nH]2)C(=O)Cn3c4ccccc4nn3", "inchi": "InChI=1S/C20H21N7O/c1-25(2)16-7-9-17(10-8-16)26(13-15-11-12-21-22-15)20(28)14-27-19-6-4-3-5-18(19)23-24-27/h3-12H,13-14H2,1-2H3,(H,21,22)", "inchi_key": "NAUKDTRKBNSCDS-UHFFFAOYSA-N", "fixed_inchi": "InChI=1/C20H21N7O/c1-25(2)16-7-9-17(10-8-16)26(13-15-11-12-21-22-15)20(28)14-27-19-6-4-3-5-18(19)23-24-27/h3-12H,13-14H2,1-2H3,(H,21,22)/f/h22H", "fixed_inchikey": "NAUKDTRKBNSCDS-QWOVJGMINA-N"}

> <data_format>
sdf

$$$$
