LIG(A-306)
  -OEChem-06042511423D

 52 56  0     1  0  0  0  0  0999 V2000
    6.1366    1.4878   24.4443 O   0  0  0  0  0  0  0  0  0  0  0  0
    7.3836    1.9325   24.9752 S   0  0  0  0  0  0  0  0  0  0  0  0
    7.5412    2.0491   26.3908 O   0  0  0  0  0  0  0  0  0  0  0  0
    7.7826    3.3847   24.3594 N   0  0  0  0  0  0  0  0  0  0  0  0
    7.5372    3.7932   22.9655 C   0  0  0  0  0  0  0  0  0  0  0  0
    7.3912    5.2380   22.6697 C   0  0  0  0  0  0  0  0  0  0  0  0
    6.2073    4.3419   22.6055 C   0  0  0  0  0  0  0  0  0  0  0  0
    8.5263    0.8822   24.5397 N   0  0  3  0  0  0  0  0  0  0  0  0
    9.9291    1.2269   24.8021 C   0  0  0  0  0  0  0  0  0  0  0  0
    8.2712   -0.4899   24.0629 C   0  0  0  0  0  0  0  0  0  0  0  0
    9.0622   -0.8463   22.8049 C   0  0  2  0  0  0  0  0  0  0  0  0
   10.5270   -0.4934   22.9844 C   0  0  0  0  0  0  0  0  0  0  0  0
   10.8984    0.5274   23.8744 C   0  0  0  0  0  0  0  0  0  0  0  0
   12.2382    0.9071   23.9520 C   0  0  0  0  0  0  0  0  0  0  0  0
   13.2027    0.2889   23.1817 C   0  0  0  0  0  0  0  0  0  0  0  0
   11.5124   -1.1367   22.2299 C   0  0  0  0  0  0  0  0  0  0  0  0
   12.8303   -0.7321   22.3416 C   0  0  0  0  0  0  0  0  0  0  0  0
   14.0513   -1.5420   21.4003 Cl  0  0  0  0  0  0  0  0  0  0  0  0
    8.5285   -0.0861   21.5889 C   0  0  0  0  0  0  0  0  0  0  0  0
    9.1025    0.8979   21.1366 O   0  0  0  0  0  0  0  0  0  0  0  0
    7.3703   -0.5710   21.0737 N   0  0  0  0  0  0  0  0  0  0  0  0
    6.6461   -0.0719   19.9633 C   0  0  0  0  0  0  0  0  0  0  0  0
    5.4699    0.7094   20.2015 C   0  0  0  0  0  0  0  0  0  0  0  0
    4.9197    0.9352   21.4888 C   0  0  0  0  0  0  0  0  0  0  0  0
    3.8174    1.7277   21.6530 C   0  0  0  0  0  0  0  0  0  0  0  0
    3.2124    2.3355   20.5582 C   0  0  0  0  0  0  0  0  0  0  0  0
    3.6967    2.1388   19.2980 C   0  0  0  0  0  0  0  0  0  0  0  0
    4.8299    1.3154   19.0807 C   0  0  0  0  0  0  0  0  0  0  0  0
    5.3781    1.0746   17.7953 C   0  0  0  0  0  0  0  0  0  0  0  0
    6.4574    0.3334   17.5734 N   0  0  0  0  0  0  0  0  0  0  0  0
    7.0655   -0.2112   18.6385 C   0  0  0  0  0  0  0  0  0  0  0  0
    7.7168    4.1346   25.0177 H   0  0  0  0  0  0  0  0  0  0  0  0
    8.0346    3.1916   22.1904 H   0  0  0  0  0  0  0  0  0  0  0  0
    7.4786    5.9770   23.4799 H   0  0  0  0  0  0  0  0  0  0  0  0
    7.8157    5.6559   21.7449 H   0  0  0  0  0  0  0  0  0  0  0  0
    5.7553    4.0960   21.6333 H   0  0  0  0  0  0  0  0  0  0  0  0
    5.4182    4.4171   23.3682 H   0  0  0  0  0  0  0  0  0  0  0  0
   10.0508    2.3133   24.6803 H   0  0  0  0  0  0  0  0  0  0  0  0
   10.1706    0.9446   25.8375 H   0  0  0  0  0  0  0  0  0  0  0  0
    8.5476   -1.1945   24.8611 H   0  0  0  0  0  0  0  0  0  0  0  0
    7.1984   -0.5893   23.8414 H   0  0  0  0  0  0  0  0  0  0  0  0
    8.9717   -1.9267   22.6192 H   0  0  0  0  0  0  0  0  0  0  0  0
   12.5264    1.6994   24.6271 H   0  0  0  0  0  0  0  0  0  0  0  0
   14.2344    0.6032   23.2386 H   0  0  0  0  0  0  0  0  0  0  0  0
   11.2464   -1.9444   21.5641 H   0  0  0  0  0  0  0  0  0  0  0  0
    6.9840   -1.3725   21.5303 H   0  0  0  0  0  0  0  0  0  0  0  0
    5.3776    0.4747   22.3517 H   0  0  0  0  0  0  0  0  0  0  0  0
    3.4129    1.8832   22.6423 H   0  0  0  0  0  0  0  0  0  0  0  0
    2.3508    2.9694   20.7069 H   0  0  0  0  0  0  0  0  0  0  0  0
    3.2122    2.6147   18.4583 H   0  0  0  0  0  0  0  0  0  0  0  0
    4.8872    1.5220   16.9437 H   0  0  0  0  0  0  0  0  0  0  0  0
    7.9495   -0.8044   18.4568 H   0  0  0  0  0  0  0  0  0  0  0  0
  1  2  2  0  0  0  0
  2  3  2  0  0  0  0
  2  4  1  0  0  0  0
  2  8  1  0  0  0  0
  4  5  1  0  0  0  0
  4 32  1  0  0  0  0
  5  6  1  0  0  0  0
  5  7  1  0  0  0  0
  5 33  1  0  0  0  0
  6  7  1  0  0  0  0
  6 34  1  0  0  0  0
  6 35  1  0  0  0  0
  7 36  1  0  0  0  0
  7 37  1  0  0  0  0
  8  9  1  0  0  0  0
  8 10  1  0  0  0  0
  9 13  1  0  0  0  0
  9 38  1  0  0  0  0
  9 39  1  0  0  0  0
 10 11  1  0  0  0  0
 10 40  1  0  0  0  0
 10 41  1  0  0  0  0
 11 12  1  0  0  0  0
 11 19  1  0  0  0  0
 11 42  1  0  0  0  0
 12 13  2  0  0  0  0
 12 16  1  0  0  0  0
 13 14  1  0  0  0  0
 14 15  2  0  0  0  0
 14 43  1  0  0  0  0
 15 17  1  0  0  0  0
 15 44  1  0  0  0  0
 16 17  2  0  0  0  0
 16 45  1  0  0  0  0
 17 18  1  0  0  0  0
 19 20  2  0  0  0  0
 19 21  1  0  0  0  0
 21 22  1  0  0  0  0
 21 46  1  0  0  0  0
 22 23  2  0  0  0  0
 22 31  1  0  0  0  0
 23 24  1  0  0  0  0
 23 28  1  0  0  0  0
 24 25  2  0  0  0  0
 24 47  1  0  0  0  0
 25 26  1  0  0  0  0
 25 48  1  0  0  0  0
 26 27  2  0  0  0  0
 26 49  1  0  0  0  0
 27 28  1  0  0  0  0
 27 50  1  0  0  0  0
 28 29  2  0  0  0  0
 29 30  1  0  0  0  0
 29 51  1  0  0  0  0
 30 31  2  0  0  0  0
 31 52  1  0  0  0  0
M  END
> <compound_name>
MAT-POS-5cd9ea36-2

> <provenance>
{"isomeric_smiles": "c1ccc2c(c1)cncc2NC(=O)[C@@H]3CN(Cc4c3cc(cc4)Cl)S(=O)(=O)NC5CC5", "inchi": "InChI=1S/C22H21ClN4O3S/c23-16-6-5-15-12-27(31(29,30)26-17-7-8-17)13-20(19(15)9-16)22(28)25-21-11-24-10-14-3-1-2-4-18(14)21/h1-6,9-11,17,20,26H,7-8,12-13H2,(H,25,28)/t20-/m1/s1", "inchi_key": "XGZIABVELMXRKW-HXUWFJFHSA-N", "fixed_inchi": "InChI=1/C22H21ClN4O3S/c23-16-6-5-15-12-27(31(29,30)26-17-7-8-17)13-20(19(15)9-16)22(28)25-21-11-24-10-14-3-1-2-4-18(14)21/h1-6,9-11,17,20,26H,7-8,12-13H2,(H,25,28)/t20-/m1/s1/f/h25H", "fixed_inchikey": "XGZIABVELMXRKW-KLFDUCQCNA-N"}

> <data_format>
sdf

$$$$
