LIG(A-306)
  -OEChem-06042511383D

 43 46  0     1  0  0  0  0  0999 V2000
   14.1502   -1.5862   21.1535 Cl  0  0  0  0  0  0  0  0  0  0  0  0
   13.0801   -0.7015   22.2100 C   0  0  0  0  0  0  0  0  0  0  0  0
   13.5907    0.3248   22.9759 C   0  0  0  0  0  0  0  0  0  0  0  0
   12.7243    1.1319   23.6903 C   0  0  0  0  0  0  0  0  0  0  0  0
   11.7261   -0.9697   22.1667 C   0  0  0  0  0  0  0  0  0  0  0  0
   10.8387   -0.1626   22.8772 C   0  0  0  0  0  0  0  0  0  0  0  0
   11.3613    0.8827   23.6390 C   0  0  0  0  0  0  0  0  0  0  0  0
   10.5680    1.6719   24.4295 O   0  0  0  0  0  0  0  0  0  0  0  0
    9.4826    0.9368   25.0207 C   0  0  0  0  0  0  0  0  0  0  0  0
    8.5567    0.3201   23.9916 C   0  0  0  0  0  0  0  0  0  0  0  0
    9.3386   -0.3828   22.8430 C   0  0  1  0  0  0  0  0  0  0  0  0
    8.8563    0.1700   21.5005 C   0  0  0  0  0  0  0  0  0  0  0  0
    9.3998    1.1241   20.9585 O   0  0  0  0  0  0  0  0  0  0  0  0
    7.7519   -0.4360   21.0006 N   0  0  0  0  0  0  0  0  0  0  0  0
    6.9249   -0.0028   19.9406 C   0  0  0  0  0  0  0  0  0  0  0  0
    7.2516   -0.1070   18.5865 C   0  0  0  0  0  0  0  0  0  0  0  0
    6.5616    0.4493   17.5802 N   0  0  0  0  0  0  0  0  0  0  0  0
    5.4839    1.1547   17.8931 C   0  0  0  0  0  0  0  0  0  0  0  0
    5.7381    0.7237   20.2745 C   0  0  0  0  0  0  0  0  0  0  0  0
    5.0111    1.3399   19.2152 C   0  0  0  0  0  0  0  0  0  0  0  0
    3.8703    2.1173   19.5300 C   0  0  0  0  0  0  0  0  0  0  0  0
    3.4615    2.2664   20.8211 C   0  0  0  0  0  0  0  0  0  0  0  0
    5.2704    0.8808   21.6037 C   0  0  0  0  0  0  0  0  0  0  0  0
    4.1556    1.6392   21.8615 C   0  0  0  0  0  0  0  0  0  0  0  0
    3.7318    1.7583   23.1667 O   0  0  0  0  0  0  0  0  0  0  0  0
    2.5740    2.5517   23.4525 C   0  0  0  0  0  0  0  0  0  0  0  0
   14.6561    0.4966   23.0174 H   0  0  0  0  0  0  0  0  0  0  0  0
   13.1063    1.9496   24.2834 H   0  0  0  0  0  0  0  0  0  0  0  0
   11.3562   -1.8011   21.5850 H   0  0  0  0  0  0  0  0  0  0  0  0
    9.9016    0.1320   25.6425 H   0  0  0  0  0  0  0  0  0  0  0  0
    8.8981    1.6218   25.6525 H   0  0  0  0  0  0  0  0  0  0  0  0
    7.9168   -0.4226   24.4907 H   0  0  0  0  0  0  0  0  0  0  0  0
    7.9291    1.1133   23.5592 H   0  0  0  0  0  0  0  0  0  0  0  0
    9.1299   -1.4620   22.8829 H   0  0  0  0  0  0  0  0  0  0  0  0
    7.4899   -1.2970   21.4364 H   0  0  0  0  0  0  0  0  0  0  0  0
    8.1295   -0.6811   18.3296 H   0  0  0  0  0  0  0  0  0  0  0  0
    4.9313    1.6176   17.0888 H   0  0  0  0  0  0  0  0  0  0  0  0
    3.3173    2.5982   18.7367 H   0  0  0  0  0  0  0  0  0  0  0  0
    2.5959    2.8729   21.0429 H   0  0  0  0  0  0  0  0  0  0  0  0
    5.7939    0.4014   22.4176 H   0  0  0  0  0  0  0  0  0  0  0  0
    2.3779    2.5386   24.5348 H   0  0  0  0  0  0  0  0  0  0  0  0
    2.7489    3.5869   23.1242 H   0  0  0  0  0  0  0  0  0  0  0  0
    1.7058    2.1391   22.9177 H   0  0  0  0  0  0  0  0  0  0  0  0
  1  2  1  0  0  0  0
  2  3  2  0  0  0  0
  2  5  1  0  0  0  0
  3  4  1  0  0  0  0
  3 27  1  0  0  0  0
  4  7  2  0  0  0  0
  4 28  1  0  0  0  0
  5  6  2  0  0  0  0
  5 29  1  0  0  0  0
  6  7  1  0  0  0  0
  6 11  1  0  0  0  0
  7  8  1  0  0  0  0
  8  9  1  0  0  0  0
  9 10  1  0  0  0  0
  9 30  1  0  0  0  0
  9 31  1  0  0  0  0
 10 11  1  0  0  0  0
 10 32  1  0  0  0  0
 10 33  1  0  0  0  0
 11 12  1  0  0  0  0
 11 34  1  0  0  0  0
 12 13  2  0  0  0  0
 12 14  1  0  0  0  0
 14 15  1  0  0  0  0
 14 35  1  0  0  0  0
 15 16  2  0  0  0  0
 15 19  1  0  0  0  0
 16 17  1  0  0  0  0
 16 36  1  0  0  0  0
 17 18  2  0  0  0  0
 18 20  1  0  0  0  0
 18 37  1  0  0  0  0
 19 20  2  0  0  0  0
 19 23  1  0  0  0  0
 20 21  1  0  0  0  0
 21 22  2  0  0  0  0
 21 38  1  0  0  0  0
 22 24  1  0  0  0  0
 22 39  1  0  0  0  0
 23 24  2  0  0  0  0
 23 40  1  0  0  0  0
 24 25  1  0  0  0  0
 25 26  1  0  0  0  0
 26 41  1  0  0  0  0
 26 42  1  0  0  0  0
 26 43  1  0  0  0  0
M  END
> <compound_name>
MAT-POS-f9802937-7

> <provenance>
{"isomeric_smiles": "COc1ccc2cncc(c2c1)NC(=O)[C@@H]3CCOc4c3cc(cc4)Cl", "inchi": "InChI=1S/C20H17ClN2O3/c1-25-14-4-2-12-10-22-11-18(16(12)9-14)23-20(24)15-6-7-26-19-5-3-13(21)8-17(15)19/h2-5,8-11,15H,6-7H2,1H3,(H,23,24)/t15-/m1/s1", "inchi_key": "FBODVAAXKKPILK-OAHLLOKOSA-N", "fixed_inchi": "InChI=1/C20H17ClN2O3/c1-25-14-4-2-12-10-22-11-18(16(12)9-14)23-20(24)15-6-7-26-19-5-3-13(21)8-17(15)19/h2-5,8-11,15H,6-7H2,1H3,(H,23,24)/t15-/m1/s1/f/h23H", "fixed_inchikey": "FBODVAAXKKPILK-UEBCHADLNA-N"}

> <data_format>
sdf

$$$$
