LIG(A-306)
  -OEChem-06042511393D

 58 61  0     1  0  0  0  0  0999 V2000
    9.3275    1.2118   20.9375 O   0  0  0  0  0  0  0  0  0  0  0  0
    8.7670    0.2947   21.5194 C   0  0  0  0  0  0  0  0  0  0  0  0
    7.5841   -0.2102   21.1010 N   0  0  0  0  0  0  0  0  0  0  0  0
    6.8304    0.2260   19.9948 C   0  0  0  0  0  0  0  0  0  0  0  0
    5.6792    1.0438   20.2250 C   0  0  0  0  0  0  0  0  0  0  0  0
    5.2266    1.4274   21.5154 C   0  0  0  0  0  0  0  0  0  0  0  0
    4.1382    2.2411   21.6654 C   0  0  0  0  0  0  0  0  0  0  0  0
    3.4505    2.7153   20.5551 C   0  0  0  0  0  0  0  0  0  0  0  0
    3.8442    2.3698   19.2938 C   0  0  0  0  0  0  0  0  0  0  0  0
    4.9644    1.5250   19.0937 C   0  0  0  0  0  0  0  0  0  0  0  0
    5.4380    1.1555   17.8113 C   0  0  0  0  0  0  0  0  0  0  0  0
    6.5053    0.4007   17.5992 N   0  0  0  0  0  0  0  0  0  0  0  0
    7.1719   -0.0465   18.6705 C   0  0  0  0  0  0  0  0  0  0  0  0
    9.3560   -0.2932   22.8240 C   0  0  1  0  0  0  0  0  0  0  0  0
   10.8681   -0.0700   22.8221 C   0  0  0  0  0  0  0  0  0  0  0  0
   11.7214   -0.8662   22.0605 C   0  0  0  0  0  0  0  0  0  0  0  0
   13.0836   -0.6278   22.0989 C   0  0  0  0  0  0  0  0  0  0  0  0
   14.1203   -1.4715   20.9789 Cl  0  0  0  0  0  0  0  0  0  0  0  0
   13.6305    0.3418   22.9119 C   0  0  0  0  0  0  0  0  0  0  0  0
   12.7952    1.1300   23.6795 C   0  0  0  0  0  0  0  0  0  0  0  0
   11.4280    0.9276   23.6191 C   0  0  0  0  0  0  0  0  0  0  0  0
   10.6627    1.7658   24.3866 O   0  0  0  0  0  0  0  0  0  0  0  0
    9.5324    1.1049   24.9582 C   0  0  0  0  0  0  0  0  0  0  0  0
    8.6053    0.5262   23.9044 C   0  0  0  0  0  0  0  0  0  0  0  0
    9.0294   -1.8010   22.8991 C   0  0  0  0  0  0  0  0  0  0  0  0
    9.3933   -2.4459   24.1492 N   0  0  0  0  0  0  0  0  0  0  0  0
    8.9972   -3.6844   24.4331 C   0  0  0  0  0  0  0  0  0  0  0  0
    8.2396   -4.3238   23.7051 O   0  0  0  0  0  0  0  0  0  0  0  0
    9.6130   -4.3074   25.6767 C   0  0  0  0  0  0  0  0  0  0  0  0
    8.8052   -4.1817   26.8950 N   0  3  0  0  0  0  0  0  0  0  0  0
    9.5229   -4.7199   28.0463 C   0  0  0  0  0  0  0  0  0  0  0  0
    7.5246   -4.8693   26.7449 C   0  0  0  0  0  0  0  0  0  0  0  0
    7.2068   -0.9698   21.6307 H   0  0  0  0  0  0  0  0  0  0  0  0
    5.7496    1.0713   22.3905 H   0  0  0  0  0  0  0  0  0  0  0  0
    3.8099    2.5179   22.6564 H   0  0  0  0  0  0  0  0  0  0  0  0
    2.5970    3.3629   20.6907 H   0  0  0  0  0  0  0  0  0  0  0  0
    3.2969    2.7436   18.4411 H   0  0  0  0  0  0  0  0  0  0  0  0
    4.8931    1.5125   16.9498 H   0  0  0  0  0  0  0  0  0  0  0  0
    8.0398   -0.6651   18.4960 H   0  0  0  0  0  0  0  0  0  0  0  0
   11.3235   -1.6608   21.4468 H   0  0  0  0  0  0  0  0  0  0  0  0
   14.7005    0.4837   22.9484 H   0  0  0  0  0  0  0  0  0  0  0  0
   13.2054    1.8965   24.3203 H   0  0  0  0  0  0  0  0  0  0  0  0
    9.8895    0.2873   25.6017 H   0  0  0  0  0  0  0  0  0  0  0  0
    8.9691    1.8295   25.5647 H   0  0  0  0  0  0  0  0  0  0  0  0
    7.8771   -0.1319   24.4010 H   0  0  0  0  0  0  0  0  0  0  0  0
    8.0746    1.3540   23.4113 H   0  0  0  0  0  0  0  0  0  0  0  0
    7.9458   -1.9231   22.7547 H   0  0  0  0  0  0  0  0  0  0  0  0
    9.5673   -2.3078   22.0843 H   0  0  0  0  0  0  0  0  0  0  0  0
    9.9539   -1.9481   24.8110 H   0  0  0  0  0  0  0  0  0  0  0  0
    9.7708   -5.3782   25.4802 H   0  0  0  0  0  0  0  0  0  0  0  0
   10.5829   -3.8211   25.8581 H   0  0  0  0  0  0  0  0  0  0  0  0
    8.6270   -3.2112   27.0572 H   0  0  0  0  0  0  0  0  0  0  0  0
    8.9012   -4.6163   28.9478 H   0  0  0  0  0  0  0  0  0  0  0  0
    9.7457   -5.7834   27.8749 H   0  0  0  0  0  0  0  0  0  0  0  0
   10.4631   -4.1658   28.1838 H   0  0  0  0  0  0  0  0  0  0  0  0
    6.9389   -4.7605   27.6696 H   0  0  0  0  0  0  0  0  0  0  0  0
    6.9682   -4.4285   25.9046 H   0  0  0  0  0  0  0  0  0  0  0  0
    7.7025   -5.9366   26.5471 H   0  0  0  0  0  0  0  0  0  0  0  0
  1  2  2  0  0  0  0
  2  3  1  0  0  0  0
  2 14  1  0  0  0  0
  3  4  1  0  0  0  0
  3 33  1  0  0  0  0
  4  5  2  0  0  0  0
  4 13  1  0  0  0  0
  5  6  1  0  0  0  0
  5 10  1  0  0  0  0
  6  7  2  0  0  0  0
  6 34  1  0  0  0  0
  7  8  1  0  0  0  0
  7 35  1  0  0  0  0
  8  9  2  0  0  0  0
  8 36  1  0  0  0  0
  9 10  1  0  0  0  0
  9 37  1  0  0  0  0
 10 11  2  0  0  0  0
 11 12  1  0  0  0  0
 11 38  1  0  0  0  0
 12 13  2  0  0  0  0
 13 39  1  0  0  0  0
 14 15  1  0  0  0  0
 14 24  1  0  0  0  0
 14 25  1  0  0  0  0
 15 16  2  0  0  0  0
 15 21  1  0  0  0  0
 16 17  1  0  0  0  0
 16 40  1  0  0  0  0
 17 18  1  0  0  0  0
 17 19  2  0  0  0  0
 19 20  1  0  0  0  0
 19 41  1  0  0  0  0
 20 21  2  0  0  0  0
 20 42  1  0  0  0  0
 21 22  1  0  0  0  0
 22 23  1  0  0  0  0
 23 24  1  0  0  0  0
 23 43  1  0  0  0  0
 23 44  1  0  0  0  0
 24 45  1  0  0  0  0
 24 46  1  0  0  0  0
 25 26  1  0  0  0  0
 25 47  1  0  0  0  0
 25 48  1  0  0  0  0
 26 27  1  0  0  0  0
 26 49  1  0  0  0  0
 27 28  2  0  0  0  0
 27 29  1  0  0  0  0
 29 30  1  0  0  0  0
 29 50  1  0  0  0  0
 29 51  1  0  0  0  0
 30 31  1  0  0  0  0
 30 32  1  0  0  0  0
 30 52  1  0  0  0  0
 31 53  1  0  0  0  0
 31 54  1  0  0  0  0
 31 55  1  0  0  0  0
 32 56  1  0  0  0  0
 32 57  1  0  0  0  0
 32 58  1  0  0  0  0
M  CHG  1  30   1
M  END
> <compound_name>
EDG-MED-70ae9412-2

> <provenance>
{"isomeric_smiles": "C[NH+](C)CC(=O)NC[C@]1(CCOc2c1cc(cc2)Cl)C(=O)Nc3cncc4c3cccc4", "inchi": "InChI=1S/C24H25ClN4O3/c1-29(2)14-22(30)27-15-24(9-10-32-21-8-7-17(25)11-19(21)24)23(31)28-20-13-26-12-16-5-3-4-6-18(16)20/h3-8,11-13H,9-10,14-15H2,1-2H3,(H,27,30)(H,28,31)/p+1/t24-/m0/s1", "inchi_key": "XTRUZCCFIYMEIT-DEOSSOPVSA-O", "fixed_inchi": "InChI=1/C24H25ClN4O3/c1-29(2)14-22(30)27-15-24(9-10-32-21-8-7-17(25)11-19(21)24)23(31)28-20-13-26-12-16-5-3-4-6-18(16)20/h3-8,11-13H,9-10,14-15H2,1-2H3,(H,27,30)(H,28,31)/p+1/t24-/m0/s1/fC24H26ClN4O3/h27-29H/q+1", "fixed_inchikey": "XTRUZCCFIYMEIT-WTEOWVKHNA-O"}

> <data_format>
sdf

$$$$
