LIG(A-305)
  -OEChem-06042511373D

 47 50  0     0  0  0  0  0  0999 V2000
    6.5910    1.0875   16.8325 O   0  0  0  0  0  0  0  0  0  0  0  0
    5.9131    0.8615   17.8395 C   0  0  0  0  0  0  0  0  0  0  0  0
    6.1260   -0.2506   18.7064 C   0  0  0  0  0  0  0  0  0  0  0  0
    4.9302    1.7366   18.2197 N   0  0  0  0  0  0  0  0  0  0  0  0
    4.1923    1.6296   19.3907 C   0  0  0  0  0  0  0  0  0  0  0  0
    4.4362    0.5534   20.2656 C   0  0  0  0  0  0  0  0  0  0  0  0
    3.7263    0.4784   21.4636 C   0  0  0  0  0  0  0  0  0  0  0  0
    2.7544    1.4205   21.7568 C   0  0  0  0  0  0  0  0  0  0  0  0
    2.4955    2.4526   20.8799 C   0  0  0  0  0  0  0  0  0  0  0  0
    3.2144    2.5727   19.7019 C   0  0  0  0  0  0  0  0  0  0  0  0
    5.4301   -0.4357   19.8614 C   0  0  0  0  0  0  0  0  0  0  0  0
    5.6289   -1.7078   20.6183 C   0  0  0  0  0  0  0  0  0  0  0  0
    5.0808   -2.7326   20.2302 O   0  0  0  0  0  0  0  0  0  0  0  0
    6.4080   -1.6900   21.7102 N   0  0  0  0  0  0  0  0  0  0  0  0
    6.4179   -2.7731   22.7021 C   0  0  0  0  0  0  0  0  0  0  0  0
    7.8339   -3.3043   22.8880 C   0  0  0  0  0  0  0  0  0  0  0  0
    7.3462   -0.6001   22.0083 C   0  0  0  0  0  0  0  0  0  0  0  0
    8.7481   -1.1553   22.1421 C   0  0  0  0  0  0  0  0  0  0  0  0
    8.7651   -2.2034   23.1700 N   0  0  0  0  0  0  0  0  0  0  0  0
    9.9481   -2.4607   23.8629 C   0  0  0  0  0  0  0  0  0  0  0  0
    9.9600   -3.3608   24.9378 C   0  0  0  0  0  0  0  0  0  0  0  0
   11.1370   -3.6080   25.6297 C   0  0  0  0  0  0  0  0  0  0  0  0
   12.3071   -2.9721   25.2587 C   0  0  0  0  0  0  0  0  0  0  0  0
   11.1401   -1.8258   23.4979 C   0  0  0  0  0  0  0  0  0  0  0  0
   12.3191   -2.0910   24.1858 C   0  0  0  0  0  0  0  0  0  0  0  0
   13.5962   -1.4711   23.7377 C   0  0  0  0  0  0  0  0  0  0  0  0
   14.5661   -2.3632   23.6456 F   0  0  0  0  0  0  0  0  0  0  0  0
   14.0184   -0.5423   24.5818 F   0  0  0  0  0  0  0  0  0  0  0  0
   13.5032   -0.8770   22.5358 F   0  0  0  0  0  0  0  0  0  0  0  0
    6.8743   -0.9801   18.4338 H   0  0  0  0  0  0  0  0  0  0  0  0
    4.7297    2.5046   17.6087 H   0  0  0  0  0  0  0  0  0  0  0  0
    3.9349   -0.3163   22.1645 H   0  0  0  0  0  0  0  0  0  0  0  0
    2.1958    1.3463   22.6781 H   0  0  0  0  0  0  0  0  0  0  0  0
    1.7259    3.1734   21.1134 H   0  0  0  0  0  0  0  0  0  0  0  0
    3.0181    3.3932   19.0277 H   0  0  0  0  0  0  0  0  0  0  0  0
    6.0451   -2.3890   23.6631 H   0  0  0  0  0  0  0  0  0  0  0  0
    5.7665   -3.5889   22.3557 H   0  0  0  0  0  0  0  0  0  0  0  0
    7.8468   -4.0134   23.7288 H   0  0  0  0  0  0  0  0  0  0  0  0
    8.1505   -3.8194   21.9691 H   0  0  0  0  0  0  0  0  0  0  0  0
    7.3213    0.1371   21.1922 H   0  0  0  0  0  0  0  0  0  0  0  0
    7.0541   -0.1138   22.9507 H   0  0  0  0  0  0  0  0  0  0  0  0
    9.0670   -1.5812   21.1793 H   0  0  0  0  0  0  0  0  0  0  0  0
    9.4361   -0.3472   22.4314 H   0  0  0  0  0  0  0  0  0  0  0  0
    9.0495   -3.8637   25.2284 H   0  0  0  0  0  0  0  0  0  0  0  0
   11.1391   -4.2987   26.4599 H   0  0  0  0  0  0  0  0  0  0  0  0
   13.2179   -3.1620   25.8071 H   0  0  0  0  0  0  0  0  0  0  0  0
   11.1447   -1.1249   22.6763 H   0  0  0  0  0  0  0  0  0  0  0  0
  1  2  2  0  0  0  0
  2  3  1  0  0  0  0
  2  4  1  0  0  0  0
  3 11  2  0  0  0  0
  3 30  1  0  0  0  0
  4  5  1  0  0  0  0
  4 31  1  0  0  0  0
  5  6  2  0  0  0  0
  5 10  1  0  0  0  0
  6  7  1  0  0  0  0
  6 11  1  0  0  0  0
  7  8  2  0  0  0  0
  7 32  1  0  0  0  0
  8  9  1  0  0  0  0
  8 33  1  0  0  0  0
  9 10  2  0  0  0  0
  9 34  1  0  0  0  0
 10 35  1  0  0  0  0
 11 12  1  0  0  0  0
 12 13  2  0  0  0  0
 12 14  1  0  0  0  0
 14 15  1  0  0  0  0
 14 17  1  0  0  0  0
 15 16  1  0  0  0  0
 15 36  1  0  0  0  0
 15 37  1  0  0  0  0
 16 19  1  0  0  0  0
 16 38  1  0  0  0  0
 16 39  1  0  0  0  0
 17 18  1  0  0  0  0
 17 40  1  0  0  0  0
 17 41  1  0  0  0  0
 18 19  1  0  0  0  0
 18 42  1  0  0  0  0
 18 43  1  0  0  0  0
 19 20  1  0  0  0  0
 20 21  2  0  0  0  0
 20 24  1  0  0  0  0
 21 22  1  0  0  0  0
 21 44  1  0  0  0  0
 22 23  2  0  0  0  0
 22 45  1  0  0  0  0
 23 25  1  0  0  0  0
 23 46  1  0  0  0  0
 24 25  2  0  0  0  0
 24 47  1  0  0  0  0
 25 26  1  0  0  0  0
 26 27  1  0  0  0  0
 26 28  1  0  0  0  0
 26 29  1  0  0  0  0
M  END
> <compound_name>
ERI-UCB-a0b0dbcb-4

> <provenance>
{"isomeric_smiles": "c1ccc2c(c1)c(cc(=O)[nH]2)C(=O)N3CCN(CC3)c4cccc(c4)C(F)(F)F", "inchi": "InChI=1S/C21H18F3N3O2/c22-21(23,24)14-4-3-5-15(12-14)26-8-10-27(11-9-26)20(29)17-13-19(28)25-18-7-2-1-6-16(17)18/h1-7,12-13H,8-11H2,(H,25,28)", "inchi_key": "NKHDYQSOEVSMNT-UHFFFAOYSA-N", "fixed_inchi": "InChI=1/C21H18F3N3O2/c22-21(23,24)14-4-3-5-15(12-14)26-8-10-27(11-9-26)20(29)17-13-19(28)25-18-7-2-1-6-16(17)18/h1-7,12-13H,8-11H2,(H,25,28)/f/h25H", "fixed_inchikey": "NKHDYQSOEVSMNT-LNNLXFCONA-N"}

> <data_format>
sdf

$$$$
