LIG(A-306)
  -OEChem-06042511413D

 36 38  0     0  0  0  0  0  0999 V2000
   14.0793   -1.4980   21.5370 Cl  0  0  0  0  0  0  0  0  0  0  0  0
   12.7589   -0.8348   22.4606 C   0  0  0  0  0  0  0  0  0  0  0  0
   13.0192    0.1299   23.4124 C   0  0  0  0  0  0  0  0  0  0  0  0
   11.9674    0.6114   24.1721 C   0  0  0  0  0  0  0  0  0  0  0  0
   10.6764    0.1572   23.9481 C   0  0  0  0  0  0  0  0  0  0  0  0
   11.4779   -1.3019   22.2296 C   0  0  0  0  0  0  0  0  0  0  0  0
   10.4142   -0.7823   22.9594 C   0  0  0  0  0  0  0  0  0  0  0  0
    8.9923   -1.1474   22.5969 C   0  0  0  0  0  0  0  0  0  0  0  0
    8.3921   -0.1960   21.5788 C   0  0  0  0  0  0  0  0  0  0  0  0
    8.9303    0.8733   21.2930 O   0  0  0  0  0  0  0  0  0  0  0  0
    7.2580   -0.6377   20.9958 N   0  0  0  0  0  0  0  0  0  0  0  0
    6.5660   -0.0648   19.9078 C   0  0  0  0  0  0  0  0  0  0  0  0
    6.9453   -0.2189   18.5739 C   0  0  0  0  0  0  0  0  0  0  0  0
    6.3223    0.3416   17.5279 N   0  0  0  0  0  0  0  0  0  0  0  0
    5.2700    1.1116   17.7829 C   0  0  0  0  0  0  0  0  0  0  0  0
    5.4288    0.7553   20.1832 C   0  0  0  0  0  0  0  0  0  0  0  0
    4.7689    1.3712   19.0834 C   0  0  0  0  0  0  0  0  0  0  0  0
    3.6407    2.1854   19.3317 C   0  0  0  0  0  0  0  0  0  0  0  0
    3.1653    2.3551   20.5977 C   0  0  0  0  0  0  0  0  0  0  0  0
    4.9086    0.9649   21.4853 C   0  0  0  0  0  0  0  0  0  0  0  0
    3.7812    1.7293   21.6874 C   0  0  0  0  0  0  0  0  0  0  0  0
    3.1598    1.8309   23.0431 C   0  0  0  0  0  0  0  0  0  0  0  0
    2.1964    2.5700   23.2480 O   0  0  0  0  0  0  0  0  0  0  0  0
    3.6773    1.0572   23.9711 O   0  5  0  0  0  0  0  0  0  0  0  0
   14.0224    0.5012   23.5613 H   0  0  0  0  0  0  0  0  0  0  0  0
   12.1530    1.3444   24.9432 H   0  0  0  0  0  0  0  0  0  0  0  0
    9.8649    0.5389   24.5499 H   0  0  0  0  0  0  0  0  0  0  0  0
   11.3045   -2.0661   21.4864 H   0  0  0  0  0  0  0  0  0  0  0  0
    8.9847   -2.1643   22.1774 H   0  0  0  0  0  0  0  0  0  0  0  0
    8.3778   -1.1224   23.5089 H   0  0  0  0  0  0  0  0  0  0  0  0
    6.8605   -1.4706   21.3810 H   0  0  0  0  0  0  0  0  0  0  0  0
    7.8068   -0.8372   18.3687 H   0  0  0  0  0  0  0  0  0  0  0  0
    4.7639    1.5692   16.9457 H   0  0  0  0  0  0  0  0  0  0  0  0
    3.1486    2.6798   18.5072 H   0  0  0  0  0  0  0  0  0  0  0  0
    2.3010    2.9815   20.7622 H   0  0  0  0  0  0  0  0  0  0  0  0
    5.4051    0.5172   22.3335 H   0  0  0  0  0  0  0  0  0  0  0  0
  1  2  1  0  0  0  0
  2  3  2  0  0  0  0
  2  6  1  0  0  0  0
  3  4  1  0  0  0  0
  3 25  1  0  0  0  0
  4  5  2  0  0  0  0
  4 26  1  0  0  0  0
  5  7  1  0  0  0  0
  5 27  1  0  0  0  0
  6  7  2  0  0  0  0
  6 28  1  0  0  0  0
  7  8  1  0  0  0  0
  8  9  1  0  0  0  0
  8 29  1  0  0  0  0
  8 30  1  0  0  0  0
  9 10  2  0  0  0  0
  9 11  1  0  0  0  0
 11 12  1  0  0  0  0
 11 31  1  0  0  0  0
 12 13  2  0  0  0  0
 12 16  1  0  0  0  0
 13 14  1  0  0  0  0
 13 32  1  0  0  0  0
 14 15  2  0  0  0  0
 15 17  1  0  0  0  0
 15 33  1  0  0  0  0
 16 17  2  0  0  0  0
 16 20  1  0  0  0  0
 17 18  1  0  0  0  0
 18 19  2  0  0  0  0
 18 34  1  0  0  0  0
 19 21  1  0  0  0  0
 19 35  1  0  0  0  0
 20 21  2  0  0  0  0
 20 36  1  0  0  0  0
 21 22  1  0  0  0  0
 22 23  2  0  0  0  0
 22 24  1  0  0  0  0
M  CHG  1  24  -1
M  END
> <compound_name>
MAT-POS-90fd5f68-37

> <provenance>
{"isomeric_smiles": "c1cc(cc(c1)Cl)CC(=O)Nc2cncc3c2cc(cc3)C(=O)[O-]", "inchi": "InChI=1S/C18H13ClN2O3/c19-14-3-1-2-11(6-14)7-17(22)21-16-10-20-9-13-5-4-12(18(23)24)8-15(13)16/h1-6,8-10H,7H2,(H,21,22)(H,23,24)/p-1", "inchi_key": "UKFWXTVAPKPVEE-UHFFFAOYSA-M", "fixed_inchi": "InChI=1/C18H13ClN2O3/c19-14-3-1-2-11(6-14)7-17(22)21-16-10-20-9-13-5-4-12(18(23)24)8-15(13)16/h1-6,8-10H,7H2,(H,21,22)(H,23,24)/p-1/fC18H12ClN2O3/h21H/q-1", "fixed_inchikey": "UKFWXTVAPKPVEE-YTKIOGQMNA-M"}

> <data_format>
sdf

$$$$
