LIG(A-305)
  -OEChem-06042511303D

 35 37  0     1  0  0  0  0  0999 V2000
    9.8987    0.4490   21.0390 O   0  0  0  0  0  0  0  0  0  0  0  0
    9.0547    0.1339   21.8619 C   0  0  0  0  0  0  0  0  0  0  0  0
    9.4236   -0.4252   23.2179 C   0  0  2  0  0  0  0  0  0  0  0  0
   10.9156   -0.8692   23.4100 C   0  0  0  0  0  0  0  0  0  0  0  0
   11.9807   -1.1551   22.3101 C   0  0  0  0  0  0  0  0  0  0  0  0
   12.8246    0.0059   22.8342 C   0  0  0  0  0  0  0  0  0  0  0  0
   11.9595    0.0548   24.0952 C   0  0  0  0  0  0  0  0  0  0  0  0
   10.3876   -2.1203   24.1549 C   0  0  0  0  0  0  0  0  0  0  0  0
    9.0036   -1.8742   23.5268 C   0  0  0  0  0  0  0  0  0  0  0  0
    7.7357    0.3609   21.6929 N   0  0  0  0  0  0  0  0  0  0  0  0
    6.9778    0.4450   20.4968 C   0  0  0  0  0  0  0  0  0  0  0  0
    5.6268    0.8389   20.5787 C   0  0  0  0  0  0  0  0  0  0  0  0
    4.9357    1.0498   21.9017 C   0  0  0  0  0  0  0  0  0  0  0  0
    7.5189    0.1871   19.2338 C   0  0  0  0  0  0  0  0  0  0  0  0
    6.8480    0.3622   18.0908 N   0  0  0  0  0  0  0  0  0  0  0  0
    5.5870    0.7952   18.1817 C   0  0  0  0  0  0  0  0  0  0  0  0
    4.9439    1.0300   19.3807 C   0  0  0  0  0  0  0  0  0  0  0  0
    9.1162    0.2535   24.0272 H   0  0  0  0  0  0  0  0  0  0  0  0
   12.4650   -2.1389   22.3975 H   0  0  0  0  0  0  0  0  0  0  0  0
   11.6143   -1.0169   21.2822 H   0  0  0  0  0  0  0  0  0  0  0  0
   13.8778   -0.2512   23.0205 H   0  0  0  0  0  0  0  0  0  0  0  0
   12.7726    0.9150   22.2170 H   0  0  0  0  0  0  0  0  0  0  0  0
   12.4349   -0.3856   24.9840 H   0  0  0  0  0  0  0  0  0  0  0  0
   11.5797    1.0573   24.3413 H   0  0  0  0  0  0  0  0  0  0  0  0
   10.8628   -3.0640   23.8491 H   0  0  0  0  0  0  0  0  0  0  0  0
   10.4089   -2.0375   25.2516 H   0  0  0  0  0  0  0  0  0  0  0  0
    8.7969   -2.4847   22.6353 H   0  0  0  0  0  0  0  0  0  0  0  0
    8.1648   -1.9609   24.2331 H   0  0  0  0  0  0  0  0  0  0  0  0
    7.2145    0.4890   22.5366 H   0  0  0  0  0  0  0  0  0  0  0  0
    5.4557    1.8378   22.4662 H   0  0  0  0  0  0  0  0  0  0  0  0
    3.8927    1.3521   21.7263 H   0  0  0  0  0  0  0  0  0  0  0  0
    4.9539    0.1131   22.4782 H   0  0  0  0  0  0  0  0  0  0  0  0
    8.5354   -0.1736   19.1785 H   0  0  0  0  0  0  0  0  0  0  0  0
    5.0407    0.9710   17.2668 H   0  0  0  0  0  0  0  0  0  0  0  0
    3.9157    1.3605   19.3892 H   0  0  0  0  0  0  0  0  0  0  0  0
  1  2  2  0  0  0  0
  2  3  1  0  0  0  0
  2 10  1  0  0  0  0
  3  4  1  0  0  0  0
  3  9  1  0  0  0  0
  3 18  1  0  0  0  0
  4  5  1  0  0  0  0
  4  7  1  0  0  0  0
  4  8  1  0  0  0  0
  5  6  1  0  0  0  0
  5 19  1  0  0  0  0
  5 20  1  0  0  0  0
  6  7  1  0  0  0  0
  6 21  1  0  0  0  0
  6 22  1  0  0  0  0
  7 23  1  0  0  0  0
  7 24  1  0  0  0  0
  8  9  1  0  0  0  0
  8 25  1  0  0  0  0
  8 26  1  0  0  0  0
  9 27  1  0  0  0  0
  9 28  1  0  0  0  0
 10 11  1  0  0  0  0
 10 29  1  0  0  0  0
 11 12  2  0  0  0  0
 11 14  1  0  0  0  0
 12 13  1  0  0  0  0
 12 17  1  0  0  0  0
 13 30  1  0  0  0  0
 13 31  1  0  0  0  0
 13 32  1  0  0  0  0
 14 15  2  0  0  0  0
 14 33  1  0  0  0  0
 15 16  1  0  0  0  0
 16 17  2  0  0  0  0
 16 34  1  0  0  0  0
 17 35  1  0  0  0  0
M  END
> <compound_name>
MAT-POS-590ac91e-22

> <provenance>
{"isomeric_smiles": "Cc1ccncc1NC(=O)[C@H]2CCC23CCC3", "inchi": "InChI=1S/C14H18N2O/c1-10-4-8-15-9-12(10)16-13(17)11-3-7-14(11)5-2-6-14/h4,8-9,11H,2-3,5-7H2,1H3,(H,16,17)/t11-/m1/s1", "inchi_key": "XFQCOLJIUXXMKV-LLVKDONJSA-N", "fixed_inchi": "InChI=1/C14H18N2O/c1-10-4-8-15-9-12(10)16-13(17)11-3-7-14(11)5-2-6-14/h4,8-9,11H,2-3,5-7H2,1H3,(H,16,17)/t11-/m1/s1/f/h16H", "fixed_inchikey": "XFQCOLJIUXXMKV-ZKKFCXPBNA-N"}

> <data_format>
sdf

$$$$
