LIG(A-306)
  -OEChem-06042511383D

 40 42  0     1  0  0  0  0  0999 V2000
   13.6500   -1.8001   21.7373 Cl  0  0  0  0  0  0  0  0  0  0  0  0
   12.4357   -0.8508   22.5269 C   0  0  0  0  0  0  0  0  0  0  0  0
   12.7944    0.2006   23.3578 C   0  0  0  0  0  0  0  0  0  0  0  0
   14.4546    0.6441   23.5685 Cl  0  0  0  0  0  0  0  0  0  0  0  0
   11.8170    0.9366   23.9985 C   0  0  0  0  0  0  0  0  0  0  0  0
   10.4848    0.6321   23.7983 C   0  0  0  0  0  0  0  0  0  0  0  0
   11.0986   -1.1483   22.3196 C   0  0  0  0  0  0  0  0  0  0  0  0
   10.1081   -0.4023   22.9533 C   0  0  0  0  0  0  0  0  0  0  0  0
    8.6369   -0.6948   22.6982 C   0  0  2  0  0  0  0  0  0  0  0  0
    8.3041   -2.1256   22.8629 N   0  3  0  0  0  0  0  0  0  0  0  0
    7.6734   -2.3475   24.1639 C   0  0  0  0  0  0  0  0  0  0  0  0
    8.1346    0.0280   21.4235 C   0  0  0  0  0  0  0  0  0  0  0  0
    8.6282    1.0944   21.0563 O   0  0  0  0  0  0  0  0  0  0  0  0
    7.0821   -0.5641   20.8165 N   0  0  0  0  0  0  0  0  0  0  0  0
    6.3170   -0.0489   19.7534 C   0  0  0  0  0  0  0  0  0  0  0  0
    5.2303    0.8285   20.0619 C   0  0  0  0  0  0  0  0  0  0  0  0
    4.7545    1.0677   21.3780 C   0  0  0  0  0  0  0  0  0  0  0  0
    3.7176    1.9300   21.6055 C   0  0  0  0  0  0  0  0  0  0  0  0
    3.1026    2.5922   20.5520 C   0  0  0  0  0  0  0  0  0  0  0  0
    3.5224    2.3941   19.2670 C   0  0  0  0  0  0  0  0  0  0  0  0
    4.5962    1.5097   18.9864 C   0  0  0  0  0  0  0  0  0  0  0  0
    5.0739    1.2585   17.6764 C   0  0  0  0  0  0  0  0  0  0  0  0
    6.0637    0.4231   17.3898 N   0  0  0  0  0  0  0  0  0  0  0  0
    6.6558   -0.2091   18.4113 C   0  0  0  0  0  0  0  0  0  0  0  0
   12.0939    1.7485   24.6547 H   0  0  0  0  0  0  0  0  0  0  0  0
    9.7253    1.2074   24.3066 H   0  0  0  0  0  0  0  0  0  0  0  0
   10.8234   -1.9615   21.6644 H   0  0  0  0  0  0  0  0  0  0  0  0
    8.1106   -0.1870   23.5199 H   0  0  0  0  0  0  0  0  0  0  0  0
    7.6744   -2.4044   22.1380 H   0  0  0  0  0  0  0  0  0  0  0  0
    9.1415   -2.6689   22.8042 H   0  0  0  0  0  0  0  0  0  0  0  0
    7.4299   -3.4142   24.2767 H   0  0  0  0  0  0  0  0  0  0  0  0
    8.3649   -2.0429   24.9632 H   0  0  0  0  0  0  0  0  0  0  0  0
    6.7510   -1.7518   24.2304 H   0  0  0  0  0  0  0  0  0  0  0  0
    6.8185   -1.4655   21.1599 H   0  0  0  0  0  0  0  0  0  0  0  0
    5.2181    0.5613   22.2116 H   0  0  0  0  0  0  0  0  0  0  0  0
    3.3738    2.0975   22.6156 H   0  0  0  0  0  0  0  0  0  0  0  0
    2.2852    3.2699   20.7498 H   0  0  0  0  0  0  0  0  0  0  0  0
    3.0327    2.9151   18.4576 H   0  0  0  0  0  0  0  0  0  0  0  0
    4.6015    1.7812   16.8578 H   0  0  0  0  0  0  0  0  0  0  0  0
    7.4564   -0.8952   18.1771 H   0  0  0  0  0  0  0  0  0  0  0  0
  1  2  1  0  0  0  0
  2  3  2  0  0  0  0
  2  7  1  0  0  0  0
  3  4  1  0  0  0  0
  3  5  1  0  0  0  0
  5  6  2  0  0  0  0
  5 25  1  0  0  0  0
  6  8  1  0  0  0  0
  6 26  1  0  0  0  0
  7  8  2  0  0  0  0
  7 27  1  0  0  0  0
  8  9  1  0  0  0  0
  9 10  1  0  0  0  0
  9 12  1  0  0  0  0
  9 28  1  0  0  0  0
 10 11  1  0  0  0  0
 10 29  1  0  0  0  0
 10 30  1  0  0  0  0
 11 31  1  0  0  0  0
 11 32  1  0  0  0  0
 11 33  1  0  0  0  0
 12 13  2  0  0  0  0
 12 14  1  0  0  0  0
 14 15  1  0  0  0  0
 14 34  1  0  0  0  0
 15 16  2  0  0  0  0
 15 24  1  0  0  0  0
 16 17  1  0  0  0  0
 16 21  1  0  0  0  0
 17 18  2  0  0  0  0
 17 35  1  0  0  0  0
 18 19  1  0  0  0  0
 18 36  1  0  0  0  0
 19 20  2  0  0  0  0
 19 37  1  0  0  0  0
 20 21  1  0  0  0  0
 20 38  1  0  0  0  0
 21 22  2  0  0  0  0
 22 23  1  0  0  0  0
 22 39  1  0  0  0  0
 23 24  2  0  0  0  0
 24 40  1  0  0  0  0
M  CHG  1  10   1
M  END
> <compound_name>
MAT-POS-fce787c2-5

> <provenance>
{"isomeric_smiles": "C[NH2+][C@@H](c1ccc(c(c1)Cl)Cl)C(=O)Nc2cncc3c2cccc3", "inchi": "InChI=1S/C18H15Cl2N3O/c1-21-17(11-6-7-14(19)15(20)8-11)18(24)23-16-10-22-9-12-4-2-3-5-13(12)16/h2-10,17,21H,1H3,(H,23,24)/p+1/t17-/m0/s1", "inchi_key": "TXAXJHHNYJHGRH-KRWDZBQOSA-O", "fixed_inchi": "InChI=1/C18H15Cl2N3O/c1-21-17(11-6-7-14(19)15(20)8-11)18(24)23-16-10-22-9-12-4-2-3-5-13(12)16/h2-10,17,21H,1H3,(H,23,24)/p+1/t17-/m0/s1/fC18H16Cl2N3O/h21,23H/q+1", "fixed_inchikey": "TXAXJHHNYJHGRH-SAFRTJAENA-O"}

> <data_format>
sdf

$$$$
