LIG(A-306)
  -OEChem-06042511383D

 43 46  0     1  0  0  0  0  0999 V2000
    9.3106    1.1960   21.2005 O   0  0  0  0  0  0  0  0  0  0  0  0
    8.8540    0.1376   21.6167 C   0  0  0  0  0  0  0  0  0  0  0  0
    9.4791   -0.6383   22.8104 C   0  0  1  0  0  0  0  0  0  0  0  0
   10.9801   -0.4514   22.7866 C   0  0  0  0  0  0  0  0  0  0  0  0
   11.7652   -1.1089   21.8440 C   0  0  0  0  0  0  0  0  0  0  0  0
   13.1333   -1.0088   21.9275 C   0  0  0  0  0  0  0  0  0  0  0  0
   13.8774   -1.6264   20.9708 F   0  0  0  0  0  0  0  0  0  0  0  0
   13.7902   -0.2961   22.9017 C   0  0  0  0  0  0  0  0  0  0  0  0
   13.0081    0.3504   23.8223 C   0  0  0  0  0  0  0  0  0  0  0  0
   13.5980    1.0760   24.7995 F   0  0  0  0  0  0  0  0  0  0  0  0
   11.6251    0.2853   23.8008 C   0  0  0  0  0  0  0  0  0  0  0  0
   10.9481    0.8920   24.8244 O   0  0  0  0  0  0  0  0  0  0  0  0
    9.5748    1.1945   24.5292 C   0  0  0  0  0  0  0  0  0  0  0  0
    8.8283   -0.0393   24.0680 C   0  0  0  0  0  0  0  0  0  0  0  0
    9.1340   -2.0157   22.6170 O   0  0  0  0  0  0  0  0  0  0  0  0
    9.5130   -2.9360   23.6472 C   0  0  0  0  0  0  0  0  0  0  0  0
    7.7635   -0.4552   21.0907 N   0  0  0  0  0  0  0  0  0  0  0  0
    7.0134   -0.0031   19.9917 C   0  0  0  0  0  0  0  0  0  0  0  0
    5.8646    0.8103   20.2385 C   0  0  0  0  0  0  0  0  0  0  0  0
    5.4119    1.1625   21.5363 C   0  0  0  0  0  0  0  0  0  0  0  0
    4.3270    1.9777   21.7040 C   0  0  0  0  0  0  0  0  0  0  0  0
    3.6410    2.4749   20.6068 C   0  0  0  0  0  0  0  0  0  0  0  0
    4.0367    2.1628   19.3390 C   0  0  0  0  0  0  0  0  0  0  0  0
    5.1565    1.3234   19.1193 C   0  0  0  0  0  0  0  0  0  0  0  0
    5.6363    0.9943   17.8294 C   0  0  0  0  0  0  0  0  0  0  0  0
    6.6991    0.2379   17.6006 N   0  0  0  0  0  0  0  0  0  0  0  0
    7.3561   -0.2453   18.6628 C   0  0  0  0  0  0  0  0  0  0  0  0
   11.3057   -1.6898   21.0579 H   0  0  0  0  0  0  0  0  0  0  0  0
   14.8685   -0.2480   22.9396 H   0  0  0  0  0  0  0  0  0  0  0  0
    9.0914    1.5882   25.4355 H   0  0  0  0  0  0  0  0  0  0  0  0
    9.5377    1.9541   23.7345 H   0  0  0  0  0  0  0  0  0  0  0  0
    8.8417   -0.7896   24.8723 H   0  0  0  0  0  0  0  0  0  0  0  0
    7.7878    0.2343   23.8392 H   0  0  0  0  0  0  0  0  0  0  0  0
    9.1885   -3.9501   23.3711 H   0  0  0  0  0  0  0  0  0  0  0  0
   10.6062   -2.9210   23.7680 H   0  0  0  0  0  0  0  0  0  0  0  0
    9.0355   -2.6433   24.5940 H   0  0  0  0  0  0  0  0  0  0  0  0
    7.4576   -1.3018   21.5263 H   0  0  0  0  0  0  0  0  0  0  0  0
    5.9311    0.7815   22.4032 H   0  0  0  0  0  0  0  0  0  0  0  0
    4.0016    2.2368   22.7007 H   0  0  0  0  0  0  0  0  0  0  0  0
    2.7847    3.1156   20.7571 H   0  0  0  0  0  0  0  0  0  0  0  0
    3.4914    2.5592   18.4952 H   0  0  0  0  0  0  0  0  0  0  0  0
    5.1013    1.3850   16.9764 H   0  0  0  0  0  0  0  0  0  0  0  0
    8.2168   -0.8701   18.4753 H   0  0  0  0  0  0  0  0  0  0  0  0
  1  2  2  0  0  0  0
  2  3  1  0  0  0  0
  2 17  1  0  0  0  0
  3  4  1  0  0  0  0
  3 14  1  0  0  0  0
  3 15  1  0  0  0  0
  4  5  2  0  0  0  0
  4 11  1  0  0  0  0
  5  6  1  0  0  0  0
  5 28  1  0  0  0  0
  6  7  1  0  0  0  0
  6  8  2  0  0  0  0
  8  9  1  0  0  0  0
  8 29  1  0  0  0  0
  9 10  1  0  0  0  0
  9 11  2  0  0  0  0
 11 12  1  0  0  0  0
 12 13  1  0  0  0  0
 13 14  1  0  0  0  0
 13 30  1  0  0  0  0
 13 31  1  0  0  0  0
 14 32  1  0  0  0  0
 14 33  1  0  0  0  0
 15 16  1  0  0  0  0
 16 34  1  0  0  0  0
 16 35  1  0  0  0  0
 16 36  1  0  0  0  0
 17 18  1  0  0  0  0
 17 37  1  0  0  0  0
 18 19  2  0  0  0  0
 18 27  1  0  0  0  0
 19 20  1  0  0  0  0
 19 24  1  0  0  0  0
 20 21  2  0  0  0  0
 20 38  1  0  0  0  0
 21 22  1  0  0  0  0
 21 39  1  0  0  0  0
 22 23  2  0  0  0  0
 22 40  1  0  0  0  0
 23 24  1  0  0  0  0
 23 41  1  0  0  0  0
 24 25  2  0  0  0  0
 25 26  1  0  0  0  0
 25 42  1  0  0  0  0
 26 27  2  0  0  0  0
 27 43  1  0  0  0  0
M  END
> <compound_name>
EDJ-MED-37aac4bd-4

> <provenance>
{"isomeric_smiles": "CO[C@]1(CCOc2c1cc(cc2F)F)C(=O)Nc3cncc4c3cccc4", "inchi": "InChI=1S/C20H16F2N2O3/c1-26-20(6-7-27-18-15(20)8-13(21)9-16(18)22)19(25)24-17-11-23-10-12-4-2-3-5-14(12)17/h2-5,8-11H,6-7H2,1H3,(H,24,25)/t20-/m0/s1", "inchi_key": "RMXNRMBUTBCRQX-FQEVSTJZSA-N", "fixed_inchi": "InChI=1/C20H16F2N2O3/c1-26-20(6-7-27-18-15(20)8-13(21)9-16(18)22)19(25)24-17-11-23-10-12-4-2-3-5-14(12)17/h2-5,8-11H,6-7H2,1H3,(H,24,25)/t20-/m0/s1/f/h24H", "fixed_inchikey": "RMXNRMBUTBCRQX-ZSWWDKBRNA-N"}

> <data_format>
sdf

$$$$
