LIG(A-306)
  -OEChem-06042511393D

 50 54  0     1  0  0  0  0  0999 V2000
    8.5975    1.1539   21.2932 O   0  0  0  0  0  0  0  0  0  0  0  0
    8.3385   -0.0452   21.2364 C   0  0  0  0  0  0  0  0  0  0  0  0
    7.6165   -0.5959   20.2420 N   0  0  0  0  0  0  0  0  0  0  0  0
    6.5937   -0.0573   19.4341 C   0  0  0  0  0  0  0  0  0  0  0  0
    5.6292    0.8725   19.9475 C   0  0  0  0  0  0  0  0  0  0  0  0
    5.3435    1.0348   21.3315 C   0  0  0  0  0  0  0  0  0  0  0  0
    4.3219    1.8405   21.7501 C   0  0  0  0  0  0  0  0  0  0  0  0
    3.5400    2.5279   20.8327 C   0  0  0  0  0  0  0  0  0  0  0  0
    3.7837    2.4197   19.4927 C   0  0  0  0  0  0  0  0  0  0  0  0
    4.8273    1.5879   19.0141 C   0  0  0  0  0  0  0  0  0  0  0  0
    5.0570    1.3597   17.6392 C   0  0  0  0  0  0  0  0  0  0  0  0
    5.9425    0.5009   17.1638 N   0  0  0  0  0  0  0  0  0  0  0  0
    6.6674   -0.1906   18.0483 C   0  0  0  0  0  0  0  0  0  0  0  0
    8.9544   -1.0596   22.2035 C   0  0  1  0  0  0  0  0  0  0  0  0
   10.3658   -0.6719   22.5925 C   0  0  0  0  0  0  0  0  0  0  0  0
   10.5727    0.2588   23.6168 C   0  0  0  0  0  0  0  0  0  0  0  0
   11.8590    0.6834   23.9418 C   0  0  0  0  0  0  0  0  0  0  0  0
   12.9444    0.1693   23.2527 C   0  0  0  0  0  0  0  0  0  0  0  0
   11.4672   -1.2020   21.9284 C   0  0  0  0  0  0  0  0  0  0  0  0
   12.7355   -0.7724   22.2634 C   0  0  0  0  0  0  0  0  0  0  0  0
   14.1017   -1.4248   21.3982 Cl  0  0  0  0  0  0  0  0  0  0  0  0
    8.1247   -1.1795   23.4975 C   0  0  0  0  0  0  0  0  0  0  0  0
    8.1153    0.1448   24.2663 C   0  0  0  0  0  0  0  0  0  0  0  0
    9.4484    0.7520   24.3720 N   0  0  3  0  0  0  0  0  0  0  0  0
    9.5452    1.9354   25.2030 C   0  0  0  0  0  0  0  0  0  0  0  0
    9.6656    1.5808   26.6485 C   0  0  0  0  0  0  0  0  0  0  0  0
   10.2780    0.4496   27.0978 N   0  0  0  0  0  0  0  0  0  0  0  0
   10.2253    0.4708   28.4618 C   0  0  0  0  0  0  0  0  0  0  0  0
    9.5736    1.6314   28.8015 C   0  0  0  0  0  0  0  0  0  0  0  0
    9.2215    2.3265   27.6656 N   0  0  0  0  0  0  0  0  0  0  0  0
    7.8444   -1.5490   20.0425 H   0  0  0  0  0  0  0  0  0  0  0  0
    5.9432    0.5133   22.0628 H   0  0  0  0  0  0  0  0  0  0  0  0
    4.1210    1.9431   22.8062 H   0  0  0  0  0  0  0  0  0  0  0  0
    2.7318    3.1540   21.1810 H   0  0  0  0  0  0  0  0  0  0  0  0
    3.1759    2.9727   18.7918 H   0  0  0  0  0  0  0  0  0  0  0  0
    4.4704    1.9240   16.9294 H   0  0  0  0  0  0  0  0  0  0  0  0
    7.3687   -0.9128   17.6570 H   0  0  0  0  0  0  0  0  0  0  0  0
    8.9789   -2.0435   21.7122 H   0  0  0  0  0  0  0  0  0  0  0  0
   12.0089    1.4096   24.7271 H   0  0  0  0  0  0  0  0  0  0  0  0
   13.9452    0.5013   23.4863 H   0  0  0  0  0  0  0  0  0  0  0  0
   11.3308   -1.9445   21.1559 H   0  0  0  0  0  0  0  0  0  0  0  0
    7.0911   -1.4526   23.2384 H   0  0  0  0  0  0  0  0  0  0  0  0
    8.5621   -1.9624   24.1344 H   0  0  0  0  0  0  0  0  0  0  0  0
    7.4491    0.8485   23.7458 H   0  0  0  0  0  0  0  0  0  0  0  0
    7.7324   -0.0406   25.2807 H   0  0  0  0  0  0  0  0  0  0  0  0
   10.4319    2.5123   24.9015 H   0  0  0  0  0  0  0  0  0  0  0  0
    8.6428    2.5478   25.0591 H   0  0  0  0  0  0  0  0  0  0  0  0
   10.6867   -0.2645   26.5239 H   0  0  0  0  0  0  0  0  0  0  0  0
   10.6172   -0.2747   29.1377 H   0  0  0  0  0  0  0  0  0  0  0  0
    9.3674    1.9521   29.8119 H   0  0  0  0  0  0  0  0  0  0  0  0
  1  2  2  0  0  0  0
  2  3  1  0  0  0  0
  2 14  1  0  0  0  0
  3  4  1  0  0  0  0
  3 31  1  0  0  0  0
  4  5  2  0  0  0  0
  4 13  1  0  0  0  0
  5  6  1  0  0  0  0
  5 10  1  0  0  0  0
  6  7  2  0  0  0  0
  6 32  1  0  0  0  0
  7  8  1  0  0  0  0
  7 33  1  0  0  0  0
  8  9  2  0  0  0  0
  8 34  1  0  0  0  0
  9 10  1  0  0  0  0
  9 35  1  0  0  0  0
 10 11  2  0  0  0  0
 11 12  1  0  0  0  0
 11 36  1  0  0  0  0
 12 13  2  0  0  0  0
 13 37  1  0  0  0  0
 14 15  1  0  0  0  0
 14 22  1  0  0  0  0
 14 38  1  0  0  0  0
 15 16  2  0  0  0  0
 15 19  1  0  0  0  0
 16 17  1  0  0  0  0
 16 24  1  0  0  0  0
 17 18  2  0  0  0  0
 17 39  1  0  0  0  0
 18 20  1  0  0  0  0
 18 40  1  0  0  0  0
 19 20  2  0  0  0  0
 19 41  1  0  0  0  0
 20 21  1  0  0  0  0
 22 23  1  0  0  0  0
 22 42  1  0  0  0  0
 22 43  1  0  0  0  0
 23 24  1  0  0  0  0
 23 44  1  0  0  0  0
 23 45  1  0  0  0  0
 24 25  1  0  0  0  0
 25 26  1  0  0  0  0
 25 46  1  0  0  0  0
 25 47  1  0  0  0  0
 26 27  1  0  0  0  0
 26 30  2  0  0  0  0
 27 28  1  0  0  0  0
 27 48  1  0  0  0  0
 28 29  2  0  0  0  0
 28 49  1  0  0  0  0
 29 30  1  0  0  0  0
 29 50  1  0  0  0  0
M  END
> <compound_name>
RAL-THA-8416115c-5

> <provenance>
{"isomeric_smiles": "c1ccc2c(c1)cncc2NC(=O)[C@@H]3CCN(c4c3cc(cc4)Cl)Cc5[nH]ccn5", "inchi": "InChI=1S/C23H20ClN5O/c24-16-5-6-21-19(11-16)18(7-10-29(21)14-22-26-8-9-27-22)23(30)28-20-13-25-12-15-3-1-2-4-17(15)20/h1-6,8-9,11-13,18H,7,10,14H2,(H,26,27)(H,28,30)/t18-/m1/s1", "inchi_key": "ALSINHANKODPSI-GOSISDBHSA-N", "fixed_inchi": "InChI=1/C23H20ClN5O/c24-16-5-6-21-19(11-16)18(7-10-29(21)14-22-26-8-9-27-22)23(30)28-20-13-25-12-15-3-1-2-4-17(15)20/h1-6,8-9,11-13,18H,7,10,14H2,(H,26,27)(H,28,30)/t18-/m1/s1/f/h26,28H", "fixed_inchikey": "ALSINHANKODPSI-RQYYLDKYNA-N"}

> <data_format>
sdf

$$$$
