LIG(A-306)
  -OEChem-06042511433D

 53 57  0     1  0  0  0  0  0999 V2000
   10.9339    3.0235   24.5440 O   0  0  0  0  0  0  0  0  0  0  0  0
   10.5447    1.9209   24.2046 C   0  0  0  0  0  0  0  0  0  0  0  0
    9.2619    1.5144   24.4138 N   0  0  0  0  0  0  0  0  0  0  0  0
    8.3816    2.2979   25.2618 C   0  0  0  0  0  0  0  0  0  0  0  0
    7.6517    3.4497   24.5866 C   0  0  0  0  0  0  0  0  0  0  0  0
    6.8061    4.0933   25.2080 O   0  0  0  0  0  0  0  0  0  0  0  0
    7.9400    3.7064   23.3158 N   0  0  0  0  0  0  0  0  0  0  0  0
    7.1767    4.6559   22.5236 C   0  0  0  0  0  0  0  0  0  0  0  0
   11.4317    0.9736   23.5057 C   0  0  0  0  0  0  0  0  0  0  0  0
   12.7992    1.2391   23.4638 C   0  0  0  0  0  0  0  0  0  0  0  0
   13.6564    0.3877   22.7945 C   0  0  0  0  0  0  0  0  0  0  0  0
   13.1451   -0.7423   22.1900 C   0  0  0  0  0  0  0  0  0  0  0  0
   14.2199   -1.7961   21.3206 Cl  0  0  0  0  0  0  0  0  0  0  0  0
   11.7965   -1.0498   22.2316 C   0  0  0  0  0  0  0  0  0  0  0  0
   10.9233   -0.1723   22.8701 C   0  0  0  0  0  0  0  0  0  0  0  0
    9.4099   -0.3589   22.7865 C   0  0  1  0  0  0  0  0  0  0  0  0
    8.8272    0.1456   24.1321 C   0  0  0  0  0  0  0  0  0  0  0  0
    8.8074    0.4789   21.6577 C   0  0  0  0  0  0  0  0  0  0  0  0
    9.1875    1.5800   21.2991 O   0  0  0  0  0  0  0  0  0  0  0  0
    7.7639   -0.2134   21.1254 N   0  0  0  0  0  0  0  0  0  0  0  0
    7.5874   -1.5372   21.7489 C   0  0  0  0  0  0  0  0  0  0  0  0
    8.9341   -1.7902   22.4234 C   0  0  0  0  0  0  0  0  0  0  0  0
    6.9167    0.2595   20.0729 C   0  0  0  0  0  0  0  0  0  0  0  0
    5.7863    1.0732   20.3791 C   0  0  0  0  0  0  0  0  0  0  0  0
    5.3772    1.4045   21.6988 C   0  0  0  0  0  0  0  0  0  0  0  0
    4.2898    2.2035   21.9170 C   0  0  0  0  0  0  0  0  0  0  0  0
    3.5596    2.7163   20.8496 C   0  0  0  0  0  0  0  0  0  0  0  0
    3.9139    2.4259   19.5631 C   0  0  0  0  0  0  0  0  0  0  0  0
    5.0262    1.5911   19.2908 C   0  0  0  0  0  0  0  0  0  0  0  0
    5.4363    1.2478   17.9730 C   0  0  0  0  0  0  0  0  0  0  0  0
    6.4887    0.4861   17.6940 N   0  0  0  0  0  0  0  0  0  0  0  0
    7.1970    0.0126   18.7306 C   0  0  0  0  0  0  0  0  0  0  0  0
    7.6238    1.6181   25.6786 H   0  0  0  0  0  0  0  0  0  0  0  0
    8.9873    2.7169   26.0789 H   0  0  0  0  0  0  0  0  0  0  0  0
    8.7089    3.2299   22.8894 H   0  0  0  0  0  0  0  0  0  0  0  0
    7.5940    4.7051   21.5070 H   0  0  0  0  0  0  0  0  0  0  0  0
    6.1269    4.3312   22.4737 H   0  0  0  0  0  0  0  0  0  0  0  0
    7.2312    5.6503   22.9907 H   0  0  0  0  0  0  0  0  0  0  0  0
   13.1910    2.1160   23.9578 H   0  0  0  0  0  0  0  0  0  0  0  0
   14.7134    0.6037   22.7449 H   0  0  0  0  0  0  0  0  0  0  0  0
   11.4266   -1.9565   21.7760 H   0  0  0  0  0  0  0  0  0  0  0  0
    7.7287    0.1210   24.0796 H   0  0  0  0  0  0  0  0  0  0  0  0
    9.1704   -0.5144   24.9424 H   0  0  0  0  0  0  0  0  0  0  0  0
    6.7735   -1.5190   22.4885 H   0  0  0  0  0  0  0  0  0  0  0  0
    7.3763   -2.3051   20.9901 H   0  0  0  0  0  0  0  0  0  0  0  0
    8.8157   -2.4091   23.3250 H   0  0  0  0  0  0  0  0  0  0  0  0
    9.6376   -2.2786   21.7332 H   0  0  0  0  0  0  0  0  0  0  0  0
    5.9330    1.0197   22.5411 H   0  0  0  0  0  0  0  0  0  0  0  0
    3.9945    2.4393   22.9287 H   0  0  0  0  0  0  0  0  0  0  0  0
    2.7055    3.3492   21.0400 H   0  0  0  0  0  0  0  0  0  0  0  0
    3.3406    2.8366   18.7451 H   0  0  0  0  0  0  0  0  0  0  0  0
    4.8556    1.6304   17.1467 H   0  0  0  0  0  0  0  0  0  0  0  0
    8.0515   -0.6088   18.5069 H   0  0  0  0  0  0  0  0  0  0  0  0
  1  2  2  0  0  0  0
  2  3  1  0  0  0  0
  2  9  1  0  0  0  0
  3  4  1  0  0  0  0
  3 17  1  0  0  0  0
  4  5  1  0  0  0  0
  4 33  1  0  0  0  0
  4 34  1  0  0  0  0
  5  6  2  0  0  0  0
  5  7  1  0  0  0  0
  7  8  1  0  0  0  0
  7 35  1  0  0  0  0
  8 36  1  0  0  0  0
  8 37  1  0  0  0  0
  8 38  1  0  0  0  0
  9 10  2  0  0  0  0
  9 15  1  0  0  0  0
 10 11  1  0  0  0  0
 10 39  1  0  0  0  0
 11 12  2  0  0  0  0
 11 40  1  0  0  0  0
 12 13  1  0  0  0  0
 12 14  1  0  0  0  0
 14 15  2  0  0  0  0
 14 41  1  0  0  0  0
 15 16  1  0  0  0  0
 16 17  1  0  0  0  0
 16 18  1  0  0  0  0
 16 22  1  0  0  0  0
 17 42  1  0  0  0  0
 17 43  1  0  0  0  0
 18 19  2  0  0  0  0
 18 20  1  0  0  0  0
 20 21  1  0  0  0  0
 20 23  1  0  0  0  0
 21 22  1  0  0  0  0
 21 44  1  0  0  0  0
 21 45  1  0  0  0  0
 22 46  1  0  0  0  0
 22 47  1  0  0  0  0
 23 24  2  0  0  0  0
 23 32  1  0  0  0  0
 24 25  1  0  0  0  0
 24 29  1  0  0  0  0
 25 26  2  0  0  0  0
 25 48  1  0  0  0  0
 26 27  1  0  0  0  0
 26 49  1  0  0  0  0
 27 28  2  0  0  0  0
 27 50  1  0  0  0  0
 28 29  1  0  0  0  0
 28 51  1  0  0  0  0
 29 30  2  0  0  0  0
 30 31  1  0  0  0  0
 30 52  1  0  0  0  0
 31 32  2  0  0  0  0
 32 53  1  0  0  0  0
M  END
> <compound_name>
EDJ-MED-8bb691af-8

> <provenance>
{"isomeric_smiles": "CNC(=O)CN1C[C@]2(CCN(C2=O)c3cncc4c3cccc4)c5cc(ccc5C1=O)Cl", "inchi": "InChI=1S/C24H21ClN4O3/c1-26-21(30)13-28-14-24(19-10-16(25)6-7-18(19)22(28)31)8-9-29(23(24)32)20-12-27-11-15-4-2-3-5-17(15)20/h2-7,10-12H,8-9,13-14H2,1H3,(H,26,30)/t24-/m1/s1", "inchi_key": "ZIZXURDLSUGNHT-XMMPIXPASA-N", "fixed_inchi": "InChI=1/C24H21ClN4O3/c1-26-21(30)13-28-14-24(19-10-16(25)6-7-18(19)22(28)31)8-9-29(23(24)32)20-12-27-11-15-4-2-3-5-17(15)20/h2-7,10-12H,8-9,13-14H2,1H3,(H,26,30)/t24-/m1/s1/f/h26H", "fixed_inchikey": "ZIZXURDLSUGNHT-XUZNLZPYNA-N"}

> <data_format>
sdf

$$$$
