LIG(A-306)
  -OEChem-06042511413D

 55 58  0     1  0  0  0  0  0999 V2000
   13.9917   -1.5334   21.2647 Cl  0  0  0  0  0  0  0  0  0  0  0  0
   12.8316   -0.7932   22.3338 C   0  0  0  0  0  0  0  0  0  0  0  0
   11.4949   -1.1297   22.2184 C   0  0  0  0  0  0  0  0  0  0  0  0
   13.2630    0.1473   23.2394 C   0  0  0  0  0  0  0  0  0  0  0  0
   12.3365    0.7582   24.0617 C   0  0  0  0  0  0  0  0  0  0  0  0
   10.9789    0.4667   23.9616 C   0  0  0  0  0  0  0  0  0  0  0  0
   10.0208    1.2123   24.8587 C   0  0  0  0  0  0  0  0  0  0  0  0
    8.6352    1.0086   24.4230 N   0  0  2  0  0  0  0  0  0  0  0  0
    7.5514    1.9132   25.1749 S   0  0  0  0  0  0  0  0  0  0  0  0
    7.9289    1.9595   26.5430 O   0  0  0  0  0  0  0  0  0  0  0  0
    6.2573    1.4609   24.7959 O   0  0  0  0  0  0  0  0  0  0  0  0
    7.8054    3.3569   24.5281 N   0  0  3  0  0  0  0  0  0  0  0  0
    7.7458    3.7103   23.0918 C   0  0  0  0  0  0  0  0  0  0  0  0
    6.3798    4.2384   22.6699 C   0  0  0  0  0  0  0  0  0  0  0  0
    6.4208    5.6680   22.3390 C   0  0  0  0  0  0  0  0  0  0  0  0
    6.4222    6.7832   22.1006 N   0  0  0  0  0  0  0  0  0  0  0  0
    8.2670    4.4486   25.3914 C   0  0  0  0  0  0  0  0  0  0  0  0
   10.5485   -0.4866   23.0219 C   0  0  0  0  0  0  0  0  0  0  0  0
    9.0668   -0.7986   22.8748 C   0  0  1  0  0  0  0  0  0  0  0  0
    8.3040   -0.4003   24.1400 C   0  0  0  0  0  0  0  0  0  0  0  0
    8.5031   -0.0313   21.6748 C   0  0  0  0  0  0  0  0  0  0  0  0
    9.0392    0.9897   21.2388 O   0  0  0  0  0  0  0  0  0  0  0  0
    7.3668   -0.5572   21.1444 N   0  0  0  0  0  0  0  0  0  0  0  0
    6.6255   -0.0859   20.0280 C   0  0  0  0  0  0  0  0  0  0  0  0
    5.4614    0.7135   20.2583 C   0  0  0  0  0  0  0  0  0  0  0  0
    4.8932    0.9283   21.5396 C   0  0  0  0  0  0  0  0  0  0  0  0
    3.8010    1.7319   21.6969 C   0  0  0  0  0  0  0  0  0  0  0  0
    3.2261    2.3707   20.6053 C   0  0  0  0  0  0  0  0  0  0  0  0
    3.7213    2.1819   19.3472 C   0  0  0  0  0  0  0  0  0  0  0  0
    4.8394    1.3365   19.1346 C   0  0  0  0  0  0  0  0  0  0  0  0
    5.3805    1.0778   17.8532 C   0  0  0  0  0  0  0  0  0  0  0  0
    6.4347    0.3066   17.6330 N   0  0  0  0  0  0  0  0  0  0  0  0
    7.0278   -0.2481   18.7001 C   0  0  0  0  0  0  0  0  0  0  0  0
   11.1840   -1.8848   21.5117 H   0  0  0  0  0  0  0  0  0  0  0  0
   14.3098    0.4043   23.3066 H   0  0  0  0  0  0  0  0  0  0  0  0
   12.6716    1.4756   24.7963 H   0  0  0  0  0  0  0  0  0  0  0  0
   10.1323    0.8458   25.8898 H   0  0  0  0  0  0  0  0  0  0  0  0
   10.2556    2.2864   24.8239 H   0  0  0  0  0  0  0  0  0  0  0  0
    8.5001    4.4847   22.8888 H   0  0  0  0  0  0  0  0  0  0  0  0
    7.9737    2.8120   22.4991 H   0  0  0  0  0  0  0  0  0  0  0  0
    6.0404    3.6789   21.7856 H   0  0  0  0  0  0  0  0  0  0  0  0
    5.6693    4.0853   23.4956 H   0  0  0  0  0  0  0  0  0  0  0  0
    8.3903    5.3631   24.7928 H   0  0  0  0  0  0  0  0  0  0  0  0
    7.5261    4.6268   26.1847 H   0  0  0  0  0  0  0  0  0  0  0  0
    9.2311    4.1747   25.8449 H   0  0  0  0  0  0  0  0  0  0  0  0
    8.9398   -1.8777   22.7030 H   0  0  0  0  0  0  0  0  0  0  0  0
    8.6128   -1.0366   24.9824 H   0  0  0  0  0  0  0  0  0  0  0  0
    7.2214   -0.5076   23.9771 H   0  0  0  0  0  0  0  0  0  0  0  0
    7.0094   -1.3752   21.5952 H   0  0  0  0  0  0  0  0  0  0  0  0
    5.3307    0.4494   22.4031 H   0  0  0  0  0  0  0  0  0  0  0  0
    3.3791    1.8728   22.6811 H   0  0  0  0  0  0  0  0  0  0  0  0
    2.3786    3.0234   20.7535 H   0  0  0  0  0  0  0  0  0  0  0  0
    3.2583    2.6800   18.5082 H   0  0  0  0  0  0  0  0  0  0  0  0
    4.9037    1.5382   17.0005 H   0  0  0  0  0  0  0  0  0  0  0  0
    7.8894   -0.8732   18.5174 H   0  0  0  0  0  0  0  0  0  0  0  0
  1  2  1  0  0  0  0
  2  3  2  0  0  0  0
  2  4  1  0  0  0  0
  3 18  1  0  0  0  0
  3 34  1  0  0  0  0
  4  5  2  0  0  0  0
  4 35  1  0  0  0  0
  5  6  1  0  0  0  0
  5 36  1  0  0  0  0
  6  7  1  0  0  0  0
  6 18  2  0  0  0  0
  7  8  1  0  0  0  0
  7 37  1  0  0  0  0
  7 38  1  0  0  0  0
  8  9  1  0  0  0  0
  8 20  1  0  0  0  0
  9 10  2  0  0  0  0
  9 11  2  0  0  0  0
  9 12  1  0  0  0  0
 12 13  1  0  0  0  0
 12 17  1  0  0  0  0
 13 14  1  0  0  0  0
 13 39  1  0  0  0  0
 13 40  1  0  0  0  0
 14 15  1  0  0  0  0
 14 41  1  0  0  0  0
 14 42  1  0  0  0  0
 15 16  3  0  0  0  0
 17 43  1  0  0  0  0
 17 44  1  0  0  0  0
 17 45  1  0  0  0  0
 18 19  1  0  0  0  0
 19 20  1  0  0  0  0
 19 21  1  0  0  0  0
 19 46  1  0  0  0  0
 20 47  1  0  0  0  0
 20 48  1  0  0  0  0
 21 22  2  0  0  0  0
 21 23  1  0  0  0  0
 23 24  1  0  0  0  0
 23 49  1  0  0  0  0
 24 25  2  0  0  0  0
 24 33  1  0  0  0  0
 25 26  1  0  0  0  0
 25 30  1  0  0  0  0
 26 27  2  0  0  0  0
 26 50  1  0  0  0  0
 27 28  1  0  0  0  0
 27 51  1  0  0  0  0
 28 29  2  0  0  0  0
 28 52  1  0  0  0  0
 29 30  1  0  0  0  0
 29 53  1  0  0  0  0
 30 31  2  0  0  0  0
 31 32  1  0  0  0  0
 31 54  1  0  0  0  0
 32 33  2  0  0  0  0
 33 55  1  0  0  0  0
M  END
> <compound_name>
MAT-POS-5cd9ea36-21

> <provenance>
{"isomeric_smiles": "CN(CCC#N)S(=O)(=O)[N@]1Cc2ccc(cc2[C@@H](C1)C(=O)Nc3cncc4c3cccc4)Cl", "inchi": "InChI=1S/C23H22ClN5O3S/c1-28(10-4-9-25)33(31,32)29-14-17-7-8-18(24)11-20(17)21(15-29)23(30)27-22-13-26-12-16-5-2-3-6-19(16)22/h2-3,5-8,11-13,21H,4,10,14-15H2,1H3,(H,27,30)/t21-/m1/s1", "inchi_key": "JKPQSZQLRZDMOG-OAQYLSRUSA-N", "fixed_inchi": "InChI=1/C23H22ClN5O3S/c1-28(10-4-9-25)33(31,32)29-14-17-7-8-18(24)11-20(17)21(15-29)23(30)27-22-13-26-12-16-5-2-3-6-19(16)22/h2-3,5-8,11-13,21H,4,10,14-15H2,1H3,(H,27,30)/t21-/m1/s1/f/h27H", "fixed_inchikey": "JKPQSZQLRZDMOG-AXJFXLNJNA-N"}

> <data_format>
sdf

$$$$
