LIG(A-305)
  -OEChem-06042511323D

 26 26  0     0  0  0  0  0  0999 V2000
    6.5668   -5.0397   26.5755 C   0  0  0  0  0  0  0  0  0  0  0  0
    9.4527   -3.1148   24.1703 C   0  0  0  0  0  0  0  0  0  0  0  0
    9.3526   -1.8308   23.3582 C   0  0  0  0  0  0  0  0  0  0  0  0
   10.7496   -1.2318   23.4051 C   0  0  0  0  0  0  0  0  0  0  0  0
   11.0607   -0.1918   24.2721 C   0  0  0  0  0  0  0  0  0  0  0  0
   12.3527    0.3082   24.2970 C   0  0  0  0  0  0  0  0  0  0  0  0
   13.3296   -0.2448   23.4850 C   0  0  0  0  0  0  0  0  0  0  0  0
   13.0156   -1.2928   22.6290 C   0  0  0  0  0  0  0  0  0  0  0  0
   11.7256   -1.7828   22.5981 C   0  0  0  0  0  0  0  0  0  0  0  0
    8.1977   -3.6198   24.6653 N   0  0  0  0  0  0  0  0  0  0  0  0
    9.2118   -5.5388   26.1613 O   0  0  0  0  0  0  0  0  0  0  0  0
    8.7788   -3.6117   27.2033 O   0  0  0  0  0  0  0  0  0  0  0  0
    8.2288   -4.4508   26.1524 S   0  0  0  0  0  0  0  0  0  0  0  0
    6.6001   -5.5739   27.5365 H   0  0  0  0  0  0  0  0  0  0  0  0
    5.8834   -4.1815   26.6567 H   0  0  0  0  0  0  0  0  0  0  0  0
    6.2082   -5.7210   25.7897 H   0  0  0  0  0  0  0  0  0  0  0  0
    9.9040   -3.8884   23.5317 H   0  0  0  0  0  0  0  0  0  0  0  0
   10.1078   -2.9232   25.0328 H   0  0  0  0  0  0  0  0  0  0  0  0
    9.0597   -2.0501   22.3209 H   0  0  0  0  0  0  0  0  0  0  0  0
    8.6210   -1.1437   23.8084 H   0  0  0  0  0  0  0  0  0  0  0  0
   10.3029    0.2229   24.9203 H   0  0  0  0  0  0  0  0  0  0  0  0
   12.5989    1.1314   24.9513 H   0  0  0  0  0  0  0  0  0  0  0  0
   14.3382    0.1400   23.5176 H   0  0  0  0  0  0  0  0  0  0  0  0
   13.7754   -1.7213   21.9922 H   0  0  0  0  0  0  0  0  0  0  0  0
   11.4779   -2.6019   21.9390 H   0  0  0  0  0  0  0  0  0  0  0  0
    7.3822   -3.0755   24.4686 H   0  0  0  0  0  0  0  0  0  0  0  0
  1 13  1  0  0  0  0
  1 14  1  0  0  0  0
  1 15  1  0  0  0  0
  1 16  1  0  0  0  0
  2  3  1  0  0  0  0
  2 10  1  0  0  0  0
  2 17  1  0  0  0  0
  2 18  1  0  0  0  0
  3  4  1  0  0  0  0
  3 19  1  0  0  0  0
  3 20  1  0  0  0  0
  4  5  2  0  0  0  0
  4  9  1  0  0  0  0
  5  6  1  0  0  0  0
  5 21  1  0  0  0  0
  6  7  2  0  0  0  0
  6 22  1  0  0  0  0
  7  8  1  0  0  0  0
  7 23  1  0  0  0  0
  8  9  2  0  0  0  0
  8 24  1  0  0  0  0
  9 25  1  0  0  0  0
 10 13  1  0  0  0  0
 10 26  1  0  0  0  0
 11 13  2  0  0  0  0
 12 13  2  0  0  0  0
M  END
> <compound_name>
AAR-POS-d2a4d1df-1

> <provenance>
{"isomeric_smiles": "CS(=O)(=O)NCCc1ccccc1", "inchi": "InChI=1S/C9H13NO2S/c1-13(11,12)10-8-7-9-5-3-2-4-6-9/h2-6,10H,7-8H2,1H3", "inchi_key": "JGDDFCYMSLNOGJ-UHFFFAOYSA-N", "fixed_inchi": "InChI=1/C9H13NO2S/c1-13(11,12)10-8-7-9-5-3-2-4-6-9/h2-6,10H,7-8H2,1H3", "fixed_inchikey": "JGDDFCYMSLNOGJ-UHFFFAOYNA-N"}

> <data_format>
sdf

$$$$
