LIG(A-305)
  -OEChem-06042511353D

 37 40  0     0  0  0  0  0  0999 V2000
    8.8780    0.6981   21.1852 O   0  0  0  0  0  0  0  0  0  0  0  0
    8.4299   -0.4399   21.2803 C   0  0  0  0  0  0  0  0  0  0  0  0
    8.9329   -1.4109   22.3292 C   0  0  0  0  0  0  0  0  0  0  0  0
   10.3520   -1.0160   22.6651 C   0  0  0  0  0  0  0  0  0  0  0  0
   10.6251   -0.0710   23.6560 C   0  0  0  0  0  0  0  0  0  0  0  0
    9.6943    0.5401   24.4641 O   0  0  0  0  0  0  0  0  0  0  0  0
   10.4284    1.4131   25.3690 C   0  0  0  0  0  0  0  0  0  0  0  0
   11.8884    1.4449   24.9149 C   0  0  0  0  0  0  0  0  0  0  0  0
   11.9202    0.3639   23.8709 C   0  0  0  0  0  0  0  0  0  0  0  0
   12.9711   -0.1572   23.1258 C   0  0  0  0  0  0  0  0  0  0  0  0
   11.4119   -1.5411   21.9310 C   0  0  0  0  0  0  0  0  0  0  0  0
   12.6999   -1.1142   22.1739 C   0  0  0  0  0  0  0  0  0  0  0  0
   14.0148   -1.8203   21.2767 Cl  0  0  0  0  0  0  0  0  0  0  0  0
    7.5718   -0.9578   20.4003 N   0  0  0  0  0  0  0  0  0  0  0  0
    6.6377   -0.3457   19.5534 C   0  0  0  0  0  0  0  0  0  0  0  0
    5.6108    0.5343   20.0275 C   0  0  0  0  0  0  0  0  0  0  0  0
    5.1470    0.5564   21.3695 C   0  0  0  0  0  0  0  0  0  0  0  0
    4.0301    1.2645   21.7156 C   0  0  0  0  0  0  0  0  0  0  0  0
    3.3310    1.9925   20.7687 C   0  0  0  0  0  0  0  0  0  0  0  0
    3.7519    2.0335   19.4727 C   0  0  0  0  0  0  0  0  0  0  0  0
    4.8978    1.3064   19.0646 C   0  0  0  0  0  0  0  0  0  0  0  0
    5.3037    1.2123   17.7155 C   0  0  0  0  0  0  0  0  0  0  0  0
    6.2836    0.4432   17.2884 N   0  0  0  0  0  0  0  0  0  0  0  0
    6.8986   -0.3278   18.1894 C   0  0  0  0  0  0  0  0  0  0  0  0
    8.3031   -1.3521   23.2291 H   0  0  0  0  0  0  0  0  0  0  0  0
    8.9117   -2.4369   21.9331 H   0  0  0  0  0  0  0  0  0  0  0  0
   10.0145    1.9448   26.2130 H   0  0  0  0  0  0  0  0  0  0  0  0
   12.6912    2.0814   25.2568 H   0  0  0  0  0  0  0  0  0  0  0  0
   13.9829    0.1826   23.2906 H   0  0  0  0  0  0  0  0  0  0  0  0
   11.2247   -2.2842   21.1699 H   0  0  0  0  0  0  0  0  0  0  0  0
    7.5996   -1.9552   20.3334 H   0  0  0  0  0  0  0  0  0  0  0  0
    5.6843    0.0059   22.1276 H   0  0  0  0  0  0  0  0  0  0  0  0
    3.6891    1.2557   22.7404 H   0  0  0  0  0  0  0  0  0  0  0  0
    2.4429    2.5338   21.0595 H   0  0  0  0  0  0  0  0  0  0  0  0
    3.2077    2.6248   18.7511 H   0  0  0  0  0  0  0  0  0  0  0  0
    4.7764    1.8099   16.9867 H   0  0  0  0  0  0  0  0  0  0  0  0
    7.6655   -0.9954   17.8253 H   0  0  0  0  0  0  0  0  0  0  0  0
  1  2  2  0  0  0  0
  2  3  1  0  0  0  0
  2 14  1  0  0  0  0
  3  4  1  0  0  0  0
  3 25  1  0  0  0  0
  3 26  1  0  0  0  0
  4  5  2  0  0  0  0
  4 11  1  0  0  0  0
  5  6  1  0  0  0  0
  5  9  1  0  0  0  0
  6  7  1  0  0  0  0
  7  8  2  0  0  0  0
  7 27  1  0  0  0  0
  8  9  1  0  0  0  0
  8 28  1  0  0  0  0
  9 10  2  0  0  0  0
 10 12  1  0  0  0  0
 10 29  1  0  0  0  0
 11 12  2  0  0  0  0
 11 30  1  0  0  0  0
 12 13  1  0  0  0  0
 14 15  1  0  0  0  0
 14 31  1  0  0  0  0
 15 16  2  0  0  0  0
 15 24  1  0  0  0  0
 16 17  1  0  0  0  0
 16 21  1  0  0  0  0
 17 18  2  0  0  0  0
 17 32  1  0  0  0  0
 18 19  1  0  0  0  0
 18 33  1  0  0  0  0
 19 20  2  0  0  0  0
 19 34  1  0  0  0  0
 20 21  1  0  0  0  0
 20 35  1  0  0  0  0
 21 22  2  0  0  0  0
 22 23  1  0  0  0  0
 22 36  1  0  0  0  0
 23 24  2  0  0  0  0
 24 37  1  0  0  0  0
M  END
> <compound_name>
MAT-POS-bbbbc21a-3

> <provenance>
{"isomeric_smiles": "c1ccc2c(c1)cncc2NC(=O)Cc3cc(cc4c3occ4)Cl", "inchi": "InChI=1S/C19H13ClN2O2/c20-15-7-12-5-6-24-19(12)14(8-15)9-18(23)22-17-11-21-10-13-3-1-2-4-16(13)17/h1-8,10-11H,9H2,(H,22,23)", "inchi_key": "BSHOYSAYHBYYEY-UHFFFAOYSA-N", "fixed_inchi": "InChI=1/C19H13ClN2O2/c20-15-7-12-5-6-24-19(12)14(8-15)9-18(23)22-17-11-21-10-13-3-1-2-4-16(13)17/h1-8,10-11H,9H2,(H,22,23)/f/h22H", "fixed_inchikey": "BSHOYSAYHBYYEY-QWOVJGMINA-N"}

> <data_format>
sdf

$$$$
