LIG(A-306)
  -OEChem-06042511423D

 55 58  0     1  0  0  0  0  0999 V2000
   14.0464   -1.5842   21.3670 Cl  0  0  0  0  0  0  0  0  0  0  0  0
   12.8551   -0.8329   22.3980 C   0  0  0  0  0  0  0  0  0  0  0  0
   11.5253   -1.2015   22.2763 C   0  0  0  0  0  0  0  0  0  0  0  0
   13.2582    0.1097   23.3116 C   0  0  0  0  0  0  0  0  0  0  0  0
   12.3185    0.6775   24.1496 C   0  0  0  0  0  0  0  0  0  0  0  0
   10.9698    0.3408   24.0561 C   0  0  0  0  0  0  0  0  0  0  0  0
    9.9874    1.0342   24.9718 C   0  0  0  0  0  0  0  0  0  0  0  0
    8.6139    0.8315   24.4950 N   0  0  2  0  0  0  0  0  0  0  0  0
    7.4908    1.6840   25.2484 S   0  0  0  0  0  0  0  0  0  0  0  0
    7.7718    1.5765   26.6388 O   0  0  0  0  0  0  0  0  0  0  0  0
    6.2338    1.2723   24.7265 O   0  0  0  0  0  0  0  0  0  0  0  0
    7.7599    3.1957   24.8029 N   0  0  3  0  0  0  0  0  0  0  0  0
    8.2533    4.2803   25.6813 C   0  0  0  0  0  0  0  0  0  0  0  0
    7.1401    5.1096   26.2856 C   0  0  0  0  0  0  0  0  0  0  0  0
    7.4751    5.5213   27.6077 O   0  0  0  0  0  0  0  0  0  0  0  0
    7.4954    3.5862   23.4149 C   0  0  0  0  0  0  0  0  0  0  0  0
   10.5647   -0.5996   23.0935 C   0  0  0  0  0  0  0  0  0  0  0  0
    9.0890   -0.9186   22.9101 C   0  0  1  0  0  0  0  0  0  0  0  0
    8.3009   -0.5733   24.1750 C   0  0  0  0  0  0  0  0  0  0  0  0
    8.5545   -0.1135   21.7222 C   0  0  0  0  0  0  0  0  0  0  0  0
    9.1265    0.8954   21.3022 O   0  0  0  0  0  0  0  0  0  0  0  0
    7.4084   -0.5954   21.1729 N   0  0  0  0  0  0  0  0  0  0  0  0
    6.7083   -0.0873   20.0546 C   0  0  0  0  0  0  0  0  0  0  0  0
    5.5761    0.7630   20.2690 C   0  0  0  0  0  0  0  0  0  0  0  0
    5.0238    1.0347   21.5485 C   0  0  0  0  0  0  0  0  0  0  0  0
    3.9446    1.8623   21.6868 C   0  0  0  0  0  0  0  0  0  0  0  0
    3.3747    2.4760   20.5759 C   0  0  0  0  0  0  0  0  0  0  0  0
    3.8700    2.2473   19.3237 C   0  0  0  0  0  0  0  0  0  0  0  0
    4.9701    1.3739   19.1332 C   0  0  0  0  0  0  0  0  0  0  0  0
    5.5063    1.0722   17.8545 C   0  0  0  0  0  0  0  0  0  0  0  0
    6.5446    0.2720   17.6544 N   0  0  0  0  0  0  0  0  0  0  0  0
    7.1186   -0.2816   18.7335 C   0  0  0  0  0  0  0  0  0  0  0  0
   11.2327   -1.9495   21.5543 H   0  0  0  0  0  0  0  0  0  0  0  0
   14.2957    0.4030   23.3740 H   0  0  0  0  0  0  0  0  0  0  0  0
   12.6351    1.3959   24.8913 H   0  0  0  0  0  0  0  0  0  0  0  0
   10.0837    0.6209   25.9866 H   0  0  0  0  0  0  0  0  0  0  0  0
   10.2088    2.1115   24.9920 H   0  0  0  0  0  0  0  0  0  0  0  0
    8.8375    3.8308   26.4978 H   0  0  0  0  0  0  0  0  0  0  0  0
    8.9010    4.9431   25.0887 H   0  0  0  0  0  0  0  0  0  0  0  0
    6.9747    6.0004   25.6617 H   0  0  0  0  0  0  0  0  0  0  0  0
    6.2194    4.5085   26.3178 H   0  0  0  0  0  0  0  0  0  0  0  0
    7.0276    4.9664   28.2356 H   0  0  0  0  0  0  0  0  0  0  0  0
    7.7326    4.6521   23.2818 H   0  0  0  0  0  0  0  0  0  0  0  0
    8.1210    2.9844   22.7393 H   0  0  0  0  0  0  0  0  0  0  0  0
    6.4341    3.4150   23.1818 H   0  0  0  0  0  0  0  0  0  0  0  0
    8.9748   -1.9917   22.6971 H   0  0  0  0  0  0  0  0  0  0  0  0
    8.6069   -1.2287   25.0037 H   0  0  0  0  0  0  0  0  0  0  0  0
    7.2222   -0.6902   23.9940 H   0  0  0  0  0  0  0  0  0  0  0  0
    7.0144   -1.4035   21.6109 H   0  0  0  0  0  0  0  0  0  0  0  0
    5.4626    0.5812   22.4249 H   0  0  0  0  0  0  0  0  0  0  0  0
    3.5303    2.0413   22.6680 H   0  0  0  0  0  0  0  0  0  0  0  0
    2.5325    3.1398   20.7049 H   0  0  0  0  0  0  0  0  0  0  0  0
    3.4199    2.7357   18.4721 H   0  0  0  0  0  0  0  0  0  0  0  0
    5.0398    1.5222   16.9907 H   0  0  0  0  0  0  0  0  0  0  0  0
    7.9665   -0.9297   18.5674 H   0  0  0  0  0  0  0  0  0  0  0  0
  1  2  1  0  0  0  0
  2  3  2  0  0  0  0
  2  4  1  0  0  0  0
  3 17  1  0  0  0  0
  3 33  1  0  0  0  0
  4  5  2  0  0  0  0
  4 34  1  0  0  0  0
  5  6  1  0  0  0  0
  5 35  1  0  0  0  0
  6  7  1  0  0  0  0
  6 17  2  0  0  0  0
  7  8  1  0  0  0  0
  7 36  1  0  0  0  0
  7 37  1  0  0  0  0
  8  9  1  0  0  0  0
  8 19  1  0  0  0  0
  9 10  2  0  0  0  0
  9 11  2  0  0  0  0
  9 12  1  0  0  0  0
 12 13  1  0  0  0  0
 12 16  1  0  0  0  0
 13 14  1  0  0  0  0
 13 38  1  0  0  0  0
 13 39  1  0  0  0  0
 14 15  1  0  0  0  0
 14 40  1  0  0  0  0
 14 41  1  0  0  0  0
 15 42  1  0  0  0  0
 16 43  1  0  0  0  0
 16 44  1  0  0  0  0
 16 45  1  0  0  0  0
 17 18  1  0  0  0  0
 18 19  1  0  0  0  0
 18 20  1  0  0  0  0
 18 46  1  0  0  0  0
 19 47  1  0  0  0  0
 19 48  1  0  0  0  0
 20 21  2  0  0  0  0
 20 22  1  0  0  0  0
 22 23  1  0  0  0  0
 22 49  1  0  0  0  0
 23 24  2  0  0  0  0
 23 32  1  0  0  0  0
 24 25  1  0  0  0  0
 24 29  1  0  0  0  0
 25 26  2  0  0  0  0
 25 50  1  0  0  0  0
 26 27  1  0  0  0  0
 26 51  1  0  0  0  0
 27 28  2  0  0  0  0
 27 52  1  0  0  0  0
 28 29  1  0  0  0  0
 28 53  1  0  0  0  0
 29 30  2  0  0  0  0
 30 31  1  0  0  0  0
 30 54  1  0  0  0  0
 31 32  2  0  0  0  0
 32 55  1  0  0  0  0
M  END
> <compound_name>
MAT-POS-5cd9ea36-23

> <provenance>
{"isomeric_smiles": "CN(CCO)S(=O)(=O)[N@]1Cc2ccc(cc2[C@@H](C1)C(=O)Nc3cncc4c3cccc4)Cl", "inchi": "InChI=1S/C22H23ClN4O4S/c1-26(8-9-28)32(30,31)27-13-16-6-7-17(23)10-19(16)20(14-27)22(29)25-21-12-24-11-15-4-2-3-5-18(15)21/h2-7,10-12,20,28H,8-9,13-14H2,1H3,(H,25,29)/t20-/m1/s1", "inchi_key": "RGTAJMPNICITLK-HXUWFJFHSA-N", "fixed_inchi": "InChI=1/C22H23ClN4O4S/c1-26(8-9-28)32(30,31)27-13-16-6-7-17(23)10-19(16)20(14-27)22(29)25-21-12-24-11-15-4-2-3-5-18(15)21/h2-7,10-12,20,28H,8-9,13-14H2,1H3,(H,25,29)/t20-/m1/s1/f/h25H", "fixed_inchikey": "RGTAJMPNICITLK-KLFDUCQCNA-N"}

> <data_format>
sdf

$$$$
