LIG(A-306)
  -OEChem-06042511383D

 34 36  0     0  0  0  0  0  0999 V2000
    9.0073    0.8572   21.0195 O   0  0  0  0  0  0  0  0  0  0  0  0
    8.4613   -0.1747   21.4094 C   0  0  0  0  0  0  0  0  0  0  0  0
    9.0527   -1.0363   22.5061 C   0  0  0  0  0  0  0  0  0  0  0  0
   10.5063   -0.7244   22.7725 C   0  0  0  0  0  0  0  0  0  0  0  0
   11.5109   -1.4071   22.1030 C   0  0  0  0  0  0  0  0  0  0  0  0
   12.8455   -1.1218   22.3304 C   0  0  0  0  0  0  0  0  0  0  0  0
   10.8673    0.2563   23.6884 C   0  0  0  0  0  0  0  0  0  0  0  0
   12.1969    0.5545   23.9308 C   0  0  0  0  0  0  0  0  0  0  0  0
   13.1525   -0.1499   23.2462 C   0  0  0  0  0  0  0  0  0  0  0  0
   14.4590    0.0811   23.5332 F   0  0  0  0  0  0  0  0  0  0  0  0
    7.2993   -0.6379   20.9091 N   0  0  0  0  0  0  0  0  0  0  0  0
    6.5573   -0.0962   19.8499 C   0  0  0  0  0  0  0  0  0  0  0  0
    5.4490    0.7514   20.1572 C   0  0  0  0  0  0  0  0  0  0  0  0
    4.9685    0.9788   21.4754 C   0  0  0  0  0  0  0  0  0  0  0  0
    3.9142    1.8178   21.7036 C   0  0  0  0  0  0  0  0  0  0  0  0
    3.2844    2.4662   20.6479 C   0  0  0  0  0  0  0  0  0  0  0  0
    3.7029    2.2708   19.3628 C   0  0  0  0  0  0  0  0  0  0  0  0
    4.7932    1.4091   19.0815 C   0  0  0  0  0  0  0  0  0  0  0  0
    5.2776    1.1716   17.7712 C   0  0  0  0  0  0  0  0  0  0  0  0
    6.3010    0.3760   17.4862 N   0  0  0  0  0  0  0  0  0  0  0  0
    6.9119   -0.2382   18.5081 C   0  0  0  0  0  0  0  0  0  0  0  0
    8.4817   -0.8693   23.4312 H   0  0  0  0  0  0  0  0  0  0  0  0
    8.9681   -2.0919   22.2084 H   0  0  0  0  0  0  0  0  0  0  0  0
   11.2467   -2.1752   21.3913 H   0  0  0  0  0  0  0  0  0  0  0  0
   13.6239   -1.6506   21.8005 H   0  0  0  0  0  0  0  0  0  0  0  0
   10.0971    0.7952   24.2202 H   0  0  0  0  0  0  0  0  0  0  0  0
   12.4737    1.3210   24.6396 H   0  0  0  0  0  0  0  0  0  0  0  0
    6.9248   -1.4586   21.3408 H   0  0  0  0  0  0  0  0  0  0  0  0
    5.4433    0.4817   22.3083 H   0  0  0  0  0  0  0  0  0  0  0  0
    3.5672    1.9783   22.7136 H   0  0  0  0  0  0  0  0  0  0  0  0
    2.4564    3.1308   20.8456 H   0  0  0  0  0  0  0  0  0  0  0  0
    3.1987    2.7774   18.5532 H   0  0  0  0  0  0  0  0  0  0  0  0
    4.7820    1.6703   16.9514 H   0  0  0  0  0  0  0  0  0  0  0  0
    7.7400   -0.8916   18.2761 H   0  0  0  0  0  0  0  0  0  0  0  0
  1  2  2  0  0  0  0
  2  3  1  0  0  0  0
  2 11  1  0  0  0  0
  3  4  1  0  0  0  0
  3 22  1  0  0  0  0
  3 23  1  0  0  0  0
  4  5  2  0  0  0  0
  4  7  1  0  0  0  0
  5  6  1  0  0  0  0
  5 24  1  0  0  0  0
  6  9  2  0  0  0  0
  6 25  1  0  0  0  0
  7  8  2  0  0  0  0
  7 26  1  0  0  0  0
  8  9  1  0  0  0  0
  8 27  1  0  0  0  0
  9 10  1  0  0  0  0
 11 12  1  0  0  0  0
 11 28  1  0  0  0  0
 12 13  2  0  0  0  0
 12 21  1  0  0  0  0
 13 14  1  0  0  0  0
 13 18  1  0  0  0  0
 14 15  2  0  0  0  0
 14 29  1  0  0  0  0
 15 16  1  0  0  0  0
 15 30  1  0  0  0  0
 16 17  2  0  0  0  0
 16 31  1  0  0  0  0
 17 18  1  0  0  0  0
 17 32  1  0  0  0  0
 18 19  2  0  0  0  0
 19 20  1  0  0  0  0
 19 33  1  0  0  0  0
 20 21  2  0  0  0  0
 21 34  1  0  0  0  0
M  END
> <compound_name>
RAL-THA-2d450e86-7

> <provenance>
{"isomeric_smiles": "c1ccc2c(c1)cncc2NC(=O)Cc3ccc(cc3)F", "inchi": "InChI=1S/C17H13FN2O/c18-14-7-5-12(6-8-14)9-17(21)20-16-11-19-10-13-3-1-2-4-15(13)16/h1-8,10-11H,9H2,(H,20,21)", "inchi_key": "XYWOJIRBYMBSKX-UHFFFAOYSA-N", "fixed_inchi": "InChI=1/C17H13FN2O/c18-14-7-5-12(6-8-14)9-17(21)20-16-11-19-10-13-3-1-2-4-15(13)16/h1-8,10-11H,9H2,(H,20,21)/f/h20H", "fixed_inchikey": "XYWOJIRBYMBSKX-UYBDAZJANA-N"}

> <data_format>
sdf

$$$$
