LIG(A-306)
  -OEChem-06042511403D

 41 44  0     1  0  0  0  0  0999 V2000
    9.0306    0.7969   20.9085 O   0  0  0  0  0  0  0  0  0  0  0  0
    8.4648   -0.2521   21.2275 C   0  0  0  0  0  0  0  0  0  0  0  0
    9.0770   -1.2371   22.2873 C   0  0  2  0  0  0  0  0  0  0  0  0
    8.2032   -1.1913   23.4725 N   0  3  0  0  0  0  0  0  0  0  0  0
    8.1422    0.1627   24.0446 C   0  0  0  0  0  0  0  0  0  0  0  0
    9.4813    0.5488   24.6354 C   0  0  0  0  0  0  0  0  0  0  0  0
   10.4581   -0.7580   22.6851 C   0  0  0  0  0  0  0  0  0  0  0  0
   10.6342    0.1369   23.7482 C   0  0  0  0  0  0  0  0  0  0  0  0
   11.9242    0.5690   24.0570 C   0  0  0  0  0  0  0  0  0  0  0  0
   13.0201    0.1022   23.3558 C   0  0  0  0  0  0  0  0  0  0  0  0
   11.5650   -1.2389   21.9899 C   0  0  0  0  0  0  0  0  0  0  0  0
   12.8250   -0.8028   22.3377 C   0  0  0  0  0  0  0  0  0  0  0  0
   14.1959   -1.4236   21.4665 Cl  0  0  0  0  0  0  0  0  0  0  0  0
    7.2727   -0.6492   20.7277 N   0  0  0  0  0  0  0  0  0  0  0  0
    6.4825   -0.0032   19.7588 C   0  0  0  0  0  0  0  0  0  0  0  0
    5.4045    0.8267   20.1931 C   0  0  0  0  0  0  0  0  0  0  0  0
    5.0297    0.9856   21.5561 C   0  0  0  0  0  0  0  0  0  0  0  0
    3.9917    1.8034   21.9083 C   0  0  0  0  0  0  0  0  0  0  0  0
    3.2805    2.5014   20.9415 C   0  0  0  0  0  0  0  0  0  0  0  0
    3.6033    2.3855   19.6194 C   0  0  0  0  0  0  0  0  0  0  0  0
    4.6683    1.5416   19.2112 C   0  0  0  0  0  0  0  0  0  0  0  0
    5.0451    1.3687   17.8562 C   0  0  0  0  0  0  0  0  0  0  0  0
    6.0381    0.5889   17.4499 N   0  0  0  0  0  0  0  0  0  0  0  0
    6.7273   -0.0721   18.3868 C   0  0  0  0  0  0  0  0  0  0  0  0
    9.1259   -2.2529   21.8681 H   0  0  0  0  0  0  0  0  0  0  0  0
    7.2813   -1.4741   23.2077 H   0  0  0  0  0  0  0  0  0  0  0  0
    8.5594   -1.8204   24.1635 H   0  0  0  0  0  0  0  0  0  0  0  0
    7.8757    0.8785   23.2531 H   0  0  0  0  0  0  0  0  0  0  0  0
    7.3771    0.1879   24.8345 H   0  0  0  0  0  0  0  0  0  0  0  0
    9.5087    1.6403   24.7688 H   0  0  0  0  0  0  0  0  0  0  0  0
    9.5927    0.0571   25.6130 H   0  0  0  0  0  0  0  0  0  0  0  0
   12.0690    1.2799   24.8570 H   0  0  0  0  0  0  0  0  0  0  0  0
   14.0147    0.4426   23.6032 H   0  0  0  0  0  0  0  0  0  0  0  0
   11.4368   -1.9476   21.1851 H   0  0  0  0  0  0  0  0  0  0  0  0
    6.9082   -1.5067   21.0909 H   0  0  0  0  0  0  0  0  0  0  0  0
    5.5723    0.4531   22.3233 H   0  0  0  0  0  0  0  0  0  0  0  0
    3.7225    1.9075   22.9491 H   0  0  0  0  0  0  0  0  0  0  0  0
    2.4636    3.1426   21.2379 H   0  0  0  0  0  0  0  0  0  0  0  0
    3.0443    2.9398   18.8801 H   0  0  0  0  0  0  0  0  0  0  0  0
    4.4870    1.9074   17.1047 H   0  0  0  0  0  0  0  0  0  0  0  0
    7.5352   -0.7078   18.0558 H   0  0  0  0  0  0  0  0  0  0  0  0
  1  2  2  0  0  0  0
  2  3  1  0  0  0  0
  2 14  1  0  0  0  0
  3  4  1  0  0  0  0
  3  7  1  0  0  0  0
  3 25  1  0  0  0  0
  4  5  1  0  0  0  0
  4 26  1  0  0  0  0
  4 27  1  0  0  0  0
  5  6  1  0  0  0  0
  5 28  1  0  0  0  0
  5 29  1  0  0  0  0
  6  8  1  0  0  0  0
  6 30  1  0  0  0  0
  6 31  1  0  0  0  0
  7  8  2  0  0  0  0
  7 11  1  0  0  0  0
  8  9  1  0  0  0  0
  9 10  2  0  0  0  0
  9 32  1  0  0  0  0
 10 12  1  0  0  0  0
 10 33  1  0  0  0  0
 11 12  2  0  0  0  0
 11 34  1  0  0  0  0
 12 13  1  0  0  0  0
 14 15  1  0  0  0  0
 14 35  1  0  0  0  0
 15 16  2  0  0  0  0
 15 24  1  0  0  0  0
 16 17  1  0  0  0  0
 16 21  1  0  0  0  0
 17 18  2  0  0  0  0
 17 36  1  0  0  0  0
 18 19  1  0  0  0  0
 18 37  1  0  0  0  0
 19 20  2  0  0  0  0
 19 38  1  0  0  0  0
 20 21  1  0  0  0  0
 20 39  1  0  0  0  0
 21 22  2  0  0  0  0
 22 23  1  0  0  0  0
 22 40  1  0  0  0  0
 23 24  2  0  0  0  0
 24 41  1  0  0  0  0
M  CHG  1   4   1
M  END
> <compound_name>
MAT-POS-fb82b63d-1

> <provenance>
{"isomeric_smiles": "c1ccc2c(c1)cncc2NC(=O)[C@H]3c4cc(ccc4CC[NH2+]3)Cl", "inchi": "InChI=1S/C19H16ClN3O/c20-14-6-5-12-7-8-22-18(16(12)9-14)19(24)23-17-11-21-10-13-3-1-2-4-15(13)17/h1-6,9-11,18,22H,7-8H2,(H,23,24)/p+1/t18-/m1/s1", "inchi_key": "RTYGDBGOBVKIGM-GOSISDBHSA-O", "fixed_inchi": "InChI=1/C19H16ClN3O/c20-14-6-5-12-7-8-22-18(16(12)9-14)19(24)23-17-11-21-10-13-3-1-2-4-15(13)17/h1-6,9-11,18,22H,7-8H2,(H,23,24)/p+1/t18-/m1/s1/fC19H17ClN3O/h22-23H/q+1", "fixed_inchikey": "RTYGDBGOBVKIGM-XYPVWMSNNA-O"}

> <data_format>
sdf

$$$$
