LIG(A-306)
  -OEChem-06042511413D

 43 46  0     1  0  0  0  0  0999 V2000
    9.7100    1.0363   21.1046 O   0  0  0  0  0  0  0  0  0  0  0  0
    9.1482    0.1454   21.7212 C   0  0  0  0  0  0  0  0  0  0  0  0
    9.8590   -0.5510   22.9057 C   0  0  1  0  0  0  0  0  0  0  0  0
   11.3537   -0.2099   22.8631 C   0  0  0  0  0  0  0  0  0  0  0  0
   12.1661   -0.8831   21.9496 C   0  0  0  0  0  0  0  0  0  0  0  0
   13.4919   -0.5161   21.8073 C   0  0  0  0  0  0  0  0  0  0  0  0
   14.4779   -1.3685   20.6518 Cl  0  0  0  0  0  0  0  0  0  0  0  0
   14.0541    0.5030   22.5503 C   0  0  0  0  0  0  0  0  0  0  0  0
   13.2776    1.1630   23.4837 C   0  0  0  0  0  0  0  0  0  0  0  0
   11.9469    0.8030   23.6411 C   0  0  0  0  0  0  0  0  0  0  0  0
   11.0149    1.6538   24.8595 S   0  0  0  0  0  0  0  0  0  0  0  0
   11.2458    3.0600   24.7315 O   0  0  0  0  0  0  0  0  0  0  0  0
   11.2218    1.0311   26.1314 O   0  0  0  0  0  0  0  0  0  0  0  0
    9.4832    1.3474   24.3962 N   0  0  0  0  0  0  0  0  0  0  0  0
    9.2011   -0.0852   24.2261 C   0  0  0  0  0  0  0  0  0  0  0  0
    9.6877   -2.0760   22.7611 C   0  0  0  0  0  0  0  0  0  0  0  0
    7.9142   -0.3175   21.3971 N   0  0  0  0  0  0  0  0  0  0  0  0
    7.1258    0.0578   20.2821 C   0  0  0  0  0  0  0  0  0  0  0  0
    5.9244    0.8052   20.5000 C   0  0  0  0  0  0  0  0  0  0  0  0
    5.4143    1.1228   21.7857 C   0  0  0  0  0  0  0  0  0  0  0  0
    4.2558    1.8356   21.9274 C   0  0  0  0  0  0  0  0  0  0  0  0
    3.5575    2.2816   20.8087 C   0  0  0  0  0  0  0  0  0  0  0  0
    4.0117    2.0079   19.5493 C   0  0  0  0  0  0  0  0  0  0  0  0
    5.1961    1.2534   19.3593 C   0  0  0  0  0  0  0  0  0  0  0  0
    5.7042    0.9167   18.0785 C   0  0  0  0  0  0  0  0  0  0  0  0
    6.8147    0.2174   17.8769 N   0  0  0  0  0  0  0  0  0  0  0  0
    7.4940   -0.1964   18.9597 C   0  0  0  0  0  0  0  0  0  0  0  0
   11.7605   -1.6886   21.3554 H   0  0  0  0  0  0  0  0  0  0  0  0
   15.0875    0.7808   22.4038 H   0  0  0  0  0  0  0  0  0  0  0  0
   13.7031    1.9524   24.0856 H   0  0  0  0  0  0  0  0  0  0  0  0
    9.0324    1.9969   23.7839 H   0  0  0  0  0  0  0  0  0  0  0  0
    9.6205   -0.6507   25.0713 H   0  0  0  0  0  0  0  0  0  0  0  0
    8.1143   -0.2482   24.1790 H   0  0  0  0  0  0  0  0  0  0  0  0
   10.1895   -2.5828   23.5985 H   0  0  0  0  0  0  0  0  0  0  0  0
    8.6168   -2.3270   22.7694 H   0  0  0  0  0  0  0  0  0  0  0  0
   10.1345   -2.4066   21.8119 H   0  0  0  0  0  0  0  0  0  0  0  0
    7.5182   -0.9982   22.0134 H   0  0  0  0  0  0  0  0  0  0  0  0
    5.9490    0.7967   22.6655 H   0  0  0  0  0  0  0  0  0  0  0  0
    3.8793    2.0543   22.9158 H   0  0  0  0  0  0  0  0  0  0  0  0
    2.6479    2.8495   20.9375 H   0  0  0  0  0  0  0  0  0  0  0  0
    3.4636    2.3696   18.6918 H   0  0  0  0  0  0  0  0  0  0  0  0
    5.1526    1.2505   17.2121 H   0  0  0  0  0  0  0  0  0  0  0  0
    8.3942   -0.7698   18.7944 H   0  0  0  0  0  0  0  0  0  0  0  0
  1  2  2  0  0  0  0
  2  3  1  0  0  0  0
  2 17  1  0  0  0  0
  3  4  1  0  0  0  0
  3 15  1  0  0  0  0
  3 16  1  0  0  0  0
  4  5  2  0  0  0  0
  4 10  1  0  0  0  0
  5  6  1  0  0  0  0
  5 28  1  0  0  0  0
  6  7  1  0  0  0  0
  6  8  2  0  0  0  0
  8  9  1  0  0  0  0
  8 29  1  0  0  0  0
  9 10  2  0  0  0  0
  9 30  1  0  0  0  0
 10 11  1  0  0  0  0
 11 12  2  0  0  0  0
 11 13  2  0  0  0  0
 11 14  1  0  0  0  0
 14 15  1  0  0  0  0
 14 31  1  0  0  0  0
 15 32  1  0  0  0  0
 15 33  1  0  0  0  0
 16 34  1  0  0  0  0
 16 35  1  0  0  0  0
 16 36  1  0  0  0  0
 17 18  1  0  0  0  0
 17 37  1  0  0  0  0
 18 19  2  0  0  0  0
 18 27  1  0  0  0  0
 19 20  1  0  0  0  0
 19 24  1  0  0  0  0
 20 21  2  0  0  0  0
 20 38  1  0  0  0  0
 21 22  1  0  0  0  0
 21 39  1  0  0  0  0
 22 23  2  0  0  0  0
 22 40  1  0  0  0  0
 23 24  1  0  0  0  0
 23 41  1  0  0  0  0
 24 25  2  0  0  0  0
 25 26  1  0  0  0  0
 25 42  1  0  0  0  0
 26 27  2  0  0  0  0
 27 43  1  0  0  0  0
M  END
> <compound_name>
ALP-POS-1cbc2fae-1

> <provenance>
{"isomeric_smiles": "C[C@]1(CNS(=O)(=O)c2c1cc(cc2)Cl)C(=O)Nc3cncc4c3cccc4", "inchi": "InChI=1S/C19H16ClN3O3S/c1-19(11-22-27(25,26)17-7-6-13(20)8-15(17)19)18(24)23-16-10-21-9-12-4-2-3-5-14(12)16/h2-10,22H,11H2,1H3,(H,23,24)/t19-/m1/s1", "inchi_key": "PHRFKYXEKRVOIU-LJQANCHMSA-N", "fixed_inchi": "InChI=1/C19H16ClN3O3S/c1-19(11-22-27(25,26)17-7-6-13(20)8-15(17)19)18(24)23-16-10-21-9-12-4-2-3-5-14(12)16/h2-10,22H,11H2,1H3,(H,23,24)/t19-/m1/s1/f/h23H", "fixed_inchikey": "PHRFKYXEKRVOIU-ZRLIBOMZNA-N"}

> <data_format>
sdf

$$$$
