LIG(A-306)
  -OEChem-06042511413D

 57 61  0     1  0  0  0  0  0999 V2000
   14.0653   -1.5438   21.3392 Cl  0  0  0  0  0  0  0  0  0  0  0  0
   12.8733   -0.7110   22.3007 C   0  0  0  0  0  0  0  0  0  0  0  0
   11.5514   -1.1158   22.2379 C   0  0  0  0  0  0  0  0  0  0  0  0
   13.2738    0.3221   23.1127 C   0  0  0  0  0  0  0  0  0  0  0  0
   12.3403    0.9320   23.9290 C   0  0  0  0  0  0  0  0  0  0  0  0
   11.0034    0.5400   23.9134 C   0  0  0  0  0  0  0  0  0  0  0  0
   10.0610    1.1761   24.9058 C   0  0  0  0  0  0  0  0  0  0  0  0
    8.6725    0.9983   24.4682 N   0  0  3  0  0  0  0  0  0  0  0  0
    7.6122    2.2145   24.6935 S   0  0  0  0  0  0  0  0  0  0  0  0
    8.2185    3.1426   25.5971 O   0  0  0  0  0  0  0  0  0  0  0  0
    6.3590    1.6214   25.0439 O   0  0  0  0  0  0  0  0  0  0  0  0
    7.4506    3.0168   23.1086 C   0  0  0  0  0  0  0  0  0  0  0  0
    6.8126    4.4171   23.1177 C   0  0  0  0  0  0  0  0  0  0  0  0
    5.3971    4.5980   23.5490 C   0  0  0  0  0  0  0  0  0  0  0  0
    5.7902    4.8034   22.1039 C   0  0  0  0  0  0  0  0  0  0  0  0
    7.7139    5.4277   23.6116 O   0  0  0  0  0  0  0  0  0  0  0  0
    8.2718    6.3871   22.7013 C   0  0  0  0  0  0  0  0  0  0  0  0
   10.5940   -0.4687   23.0244 C   0  0  0  0  0  0  0  0  0  0  0  0
    9.1143   -0.7776   22.8402 C   0  0  1  0  0  0  0  0  0  0  0  0
    8.3135   -0.3790   24.0834 C   0  0  0  0  0  0  0  0  0  0  0  0
    8.5636   -0.0412   21.6150 C   0  0  0  0  0  0  0  0  0  0  0  0
    9.1037    0.9689   21.1639 O   0  0  0  0  0  0  0  0  0  0  0  0
    7.4233   -0.5701   21.0936 N   0  0  0  0  0  0  0  0  0  0  0  0
    6.6741   -0.0910   19.9892 C   0  0  0  0  0  0  0  0  0  0  0  0
    5.5029    0.7034   20.2314 C   0  0  0  0  0  0  0  0  0  0  0  0
    4.9597    0.9381   21.5227 C   0  0  0  0  0  0  0  0  0  0  0  0
    3.8695    1.7456   21.6920 C   0  0  0  0  0  0  0  0  0  0  0  0
    3.2636    2.3594   20.5992 C   0  0  0  0  0  0  0  0  0  0  0  0
    3.7348    2.1477   19.3350 C   0  0  0  0  0  0  0  0  0  0  0  0
    4.8589    1.3114   19.1136 C   0  0  0  0  0  0  0  0  0  0  0  0
    5.3961    1.0626   17.8262 C   0  0  0  0  0  0  0  0  0  0  0  0
    6.4624    0.3065   17.5962 N   0  0  0  0  0  0  0  0  0  0  0  0
    7.0734   -0.2432   18.6583 C   0  0  0  0  0  0  0  0  0  0  0  0
   11.2615   -1.9263   21.5857 H   0  0  0  0  0  0  0  0  0  0  0  0
   14.3020    0.6524   23.1133 H   0  0  0  0  0  0  0  0  0  0  0  0
   12.6525    1.7264   24.5906 H   0  0  0  0  0  0  0  0  0  0  0  0
   10.1957    0.7033   25.8898 H   0  0  0  0  0  0  0  0  0  0  0  0
   10.2838    2.2506   24.9817 H   0  0  0  0  0  0  0  0  0  0  0  0
    8.4574    3.1095   22.6751 H   0  0  0  0  0  0  0  0  0  0  0  0
    6.8332    2.3709   22.4670 H   0  0  0  0  0  0  0  0  0  0  0  0
    4.7928    3.7253   23.8371 H   0  0  0  0  0  0  0  0  0  0  0  0
    5.1164    5.4601   24.1719 H   0  0  0  0  0  0  0  0  0  0  0  0
    5.7963    5.8154   21.6728 H   0  0  0  0  0  0  0  0  0  0  0  0
    5.4727    4.0804   21.3380 H   0  0  0  0  0  0  0  0  0  0  0  0
    8.9312    7.0747   23.2510 H   0  0  0  0  0  0  0  0  0  0  0  0
    8.8519    5.8635   21.9270 H   0  0  0  0  0  0  0  0  0  0  0  0
    7.4597    6.9582   22.2276 H   0  0  0  0  0  0  0  0  0  0  0  0
    8.9975   -1.8596   22.6803 H   0  0  0  0  0  0  0  0  0  0  0  0
    8.5500   -1.0657   24.9095 H   0  0  0  0  0  0  0  0  0  0  0  0
    7.2375   -0.4305   23.8605 H   0  0  0  0  0  0  0  0  0  0  0  0
    7.0729   -1.3926   21.5416 H   0  0  0  0  0  0  0  0  0  0  0  0
    5.4148    0.4716   22.3839 H   0  0  0  0  0  0  0  0  0  0  0  0
    3.4743    1.9090   22.6837 H   0  0  0  0  0  0  0  0  0  0  0  0
    2.4139    3.0083   20.7525 H   0  0  0  0  0  0  0  0  0  0  0  0
    3.2470    2.6215   18.4960 H   0  0  0  0  0  0  0  0  0  0  0  0
    4.9065    1.5175   16.9778 H   0  0  0  0  0  0  0  0  0  0  0  0
    7.9447   -0.8526   18.4686 H   0  0  0  0  0  0  0  0  0  0  0  0
  1  2  1  0  0  0  0
  2  3  2  0  0  0  0
  2  4  1  0  0  0  0
  3 18  1  0  0  0  0
  3 34  1  0  0  0  0
  4  5  2  0  0  0  0
  4 35  1  0  0  0  0
  5  6  1  0  0  0  0
  5 36  1  0  0  0  0
  6  7  1  0  0  0  0
  6 18  2  0  0  0  0
  7  8  1  0  0  0  0
  7 37  1  0  0  0  0
  7 38  1  0  0  0  0
  8  9  1  0  0  0  0
  8 20  1  0  0  0  0
  9 10  2  0  0  0  0
  9 11  2  0  0  0  0
  9 12  1  0  0  0  0
 12 13  1  0  0  0  0
 12 39  1  0  0  0  0
 12 40  1  0  0  0  0
 13 14  1  0  0  0  0
 13 15  1  0  0  0  0
 13 16  1  0  0  0  0
 14 15  1  0  0  0  0
 14 41  1  0  0  0  0
 14 42  1  0  0  0  0
 15 43  1  0  0  0  0
 15 44  1  0  0  0  0
 16 17  1  0  0  0  0
 17 45  1  0  0  0  0
 17 46  1  0  0  0  0
 17 47  1  0  0  0  0
 18 19  1  0  0  0  0
 19 20  1  0  0  0  0
 19 21  1  0  0  0  0
 19 48  1  0  0  0  0
 20 49  1  0  0  0  0
 20 50  1  0  0  0  0
 21 22  2  0  0  0  0
 21 23  1  0  0  0  0
 23 24  1  0  0  0  0
 23 51  1  0  0  0  0
 24 25  2  0  0  0  0
 24 33  1  0  0  0  0
 25 26  1  0  0  0  0
 25 30  1  0  0  0  0
 26 27  2  0  0  0  0
 26 52  1  0  0  0  0
 27 28  1  0  0  0  0
 27 53  1  0  0  0  0
 28 29  2  0  0  0  0
 28 54  1  0  0  0  0
 29 30  1  0  0  0  0
 29 55  1  0  0  0  0
 30 31  2  0  0  0  0
 31 32  1  0  0  0  0
 31 56  1  0  0  0  0
 32 33  2  0  0  0  0
 33 57  1  0  0  0  0
M  END
> <compound_name>
EDJ-MED-76744c27-4

> <provenance>
{"isomeric_smiles": "COC1(CC1)CS(=O)(=O)N2Cc3ccc(cc3[C@@H](C2)C(=O)Nc4cncc5c4cccc5)Cl", "inchi": "InChI=1S/C24H24ClN3O4S/c1-32-24(8-9-24)15-33(30,31)28-13-17-6-7-18(25)10-20(17)21(14-28)23(29)27-22-12-26-11-16-4-2-3-5-19(16)22/h2-7,10-12,21H,8-9,13-15H2,1H3,(H,27,29)/t21-/m1/s1", "inchi_key": "XRLQZDQTHAVICV-OAQYLSRUSA-N", "fixed_inchi": "InChI=1/C24H24ClN3O4S/c1-32-24(8-9-24)15-33(30,31)28-13-17-6-7-18(25)10-20(17)21(14-28)23(29)27-22-12-26-11-16-4-2-3-5-19(16)22/h2-7,10-12,21H,8-9,13-15H2,1H3,(H,27,29)/t21-/m1/s1/f/h27H", "fixed_inchikey": "XRLQZDQTHAVICV-AXJFXLNJNA-N"}

> <data_format>
sdf

$$$$
