LIG(A-306)
  -OEChem-06042511403D

 53 56  0     1  0  0  0  0  0999 V2000
    9.2737    1.3566   21.3053 O   0  0  0  0  0  0  0  0  0  0  0  0
    8.9246    0.2171   21.5921 C   0  0  0  0  0  0  0  0  0  0  0  0
    8.0908   -0.4513   20.7752 N   0  0  0  0  0  0  0  0  0  0  0  0
    7.0605   -0.0608   19.8996 C   0  0  0  0  0  0  0  0  0  0  0  0
    6.0367    0.8562   20.3023 C   0  0  0  0  0  0  0  0  0  0  0  0
    5.7031    1.1188   21.6566 C   0  0  0  0  0  0  0  0  0  0  0  0
    4.6061    1.8677   21.9817 C   0  0  0  0  0  0  0  0  0  0  0  0
    3.7966    2.4040   20.9895 C   0  0  0  0  0  0  0  0  0  0  0  0
    4.0873    2.2025   19.6702 C   0  0  0  0  0  0  0  0  0  0  0  0
    5.2093    1.4245   19.2911 C   0  0  0  0  0  0  0  0  0  0  0  0
    5.4918    1.0939   17.9460 C   0  0  0  0  0  0  0  0  0  0  0  0
    6.4437    0.2581   17.5703 N   0  0  0  0  0  0  0  0  0  0  0  0
    7.1781   -0.3123   18.5316 C   0  0  0  0  0  0  0  0  0  0  0  0
    9.5483   -0.5249   22.8038 C   0  0  1  0  0  0  0  0  0  0  0  0
   11.0375   -0.1866   22.8349 C   0  0  0  0  0  0  0  0  0  0  0  0
   11.9167   -0.8730   22.0012 C   0  0  0  0  0  0  0  0  0  0  0  0
   13.2489   -0.5117   21.9705 C   0  0  0  0  0  0  0  0  0  0  0  0
   14.2995   -1.2844   20.8155 Cl  0  0  0  0  0  0  0  0  0  0  0  0
   13.7527    0.4869   22.7786 C   0  0  0  0  0  0  0  0  0  0  0  0
   12.9025    1.1533   23.6423 C   0  0  0  0  0  0  0  0  0  0  0  0
   11.5554    0.8280   23.6550 C   0  0  0  0  0  0  0  0  0  0  0  0
   10.7732    1.6172   24.4645 O   0  0  0  0  0  0  0  0  0  0  0  0
    9.3379    1.4409   24.3881 C   0  0  0  0  0  0  0  0  0  0  0  0
    8.9228    0.0128   24.1103 C   0  0  0  0  0  0  0  0  0  0  0  0
    9.3764   -2.0629   22.7508 C   0  0  0  0  0  0  0  0  0  0  0  0
    8.0739   -2.4588   23.1614 O   0  0  0  0  0  0  0  0  0  0  0  0
    8.0937   -3.6069   23.9956 C   0  0  0  0  0  0  0  0  0  0  0  0
    7.3841   -4.8052   23.4041 C   0  0  0  0  0  0  0  0  0  0  0  0
    7.9834   -5.8746   23.3142 O   0  0  0  0  0  0  0  0  0  0  0  0
    6.1036   -4.6799   23.0771 N   0  0  0  0  0  0  0  0  0  0  0  0
    5.2347   -5.8277   22.8738 C   0  0  0  0  0  0  0  0  0  0  0  0
    8.2342   -1.4408   20.7942 H   0  0  0  0  0  0  0  0  0  0  0  0
    6.3262    0.7205   22.4437 H   0  0  0  0  0  0  0  0  0  0  0  0
    4.3670    2.0435   23.0201 H   0  0  0  0  0  0  0  0  0  0  0  0
    2.9291    2.9861   21.2634 H   0  0  0  0  0  0  0  0  0  0  0  0
    3.4569    2.6396   18.9099 H   0  0  0  0  0  0  0  0  0  0  0  0
    4.8908    1.5543   17.1757 H   0  0  0  0  0  0  0  0  0  0  0  0
    7.9255   -1.0283   18.2233 H   0  0  0  0  0  0  0  0  0  0  0  0
   11.5589   -1.6826   21.3825 H   0  0  0  0  0  0  0  0  0  0  0  0
   14.8005    0.7456   22.7370 H   0  0  0  0  0  0  0  0  0  0  0  0
   13.2846    1.9196   24.3005 H   0  0  0  0  0  0  0  0  0  0  0  0
    8.8967    1.7523   25.3464 H   0  0  0  0  0  0  0  0  0  0  0  0
    8.9504    2.0800   23.5811 H   0  0  0  0  0  0  0  0  0  0  0  0
    9.2483   -0.6216   24.9479 H   0  0  0  0  0  0  0  0  0  0  0  0
    7.8270   -0.0286   24.0233 H   0  0  0  0  0  0  0  0  0  0  0  0
    9.5450   -2.4055   21.7191 H   0  0  0  0  0  0  0  0  0  0  0  0
   10.1176   -2.5281   23.4173 H   0  0  0  0  0  0  0  0  0  0  0  0
    9.1424   -3.8822   24.1816 H   0  0  0  0  0  0  0  0  0  0  0  0
    7.6071   -3.3515   24.9484 H   0  0  0  0  0  0  0  0  0  0  0  0
    5.7226   -3.7620   22.9666 H   0  0  0  0  0  0  0  0  0  0  0  0
    4.2240   -5.4813   22.6121 H   0  0  0  0  0  0  0  0  0  0  0  0
    5.6324   -6.4485   22.0574 H   0  0  0  0  0  0  0  0  0  0  0  0
    5.1904   -6.4222   23.7982 H   0  0  0  0  0  0  0  0  0  0  0  0
  1  2  2  0  0  0  0
  2  3  1  0  0  0  0
  2 14  1  0  0  0  0
  3  4  1  0  0  0  0
  3 32  1  0  0  0  0
  4  5  2  0  0  0  0
  4 13  1  0  0  0  0
  5  6  1  0  0  0  0
  5 10  1  0  0  0  0
  6  7  2  0  0  0  0
  6 33  1  0  0  0  0
  7  8  1  0  0  0  0
  7 34  1  0  0  0  0
  8  9  2  0  0  0  0
  8 35  1  0  0  0  0
  9 10  1  0  0  0  0
  9 36  1  0  0  0  0
 10 11  2  0  0  0  0
 11 12  1  0  0  0  0
 11 37  1  0  0  0  0
 12 13  2  0  0  0  0
 13 38  1  0  0  0  0
 14 15  1  0  0  0  0
 14 24  1  0  0  0  0
 14 25  1  0  0  0  0
 15 16  2  0  0  0  0
 15 21  1  0  0  0  0
 16 17  1  0  0  0  0
 16 39  1  0  0  0  0
 17 18  1  0  0  0  0
 17 19  2  0  0  0  0
 19 20  1  0  0  0  0
 19 40  1  0  0  0  0
 20 21  2  0  0  0  0
 20 41  1  0  0  0  0
 21 22  1  0  0  0  0
 22 23  1  0  0  0  0
 23 24  1  0  0  0  0
 23 42  1  0  0  0  0
 23 43  1  0  0  0  0
 24 44  1  0  0  0  0
 24 45  1  0  0  0  0
 25 26  1  0  0  0  0
 25 46  1  0  0  0  0
 25 47  1  0  0  0  0
 26 27  1  0  0  0  0
 27 28  1  0  0  0  0
 27 48  1  0  0  0  0
 27 49  1  0  0  0  0
 28 29  2  0  0  0  0
 28 30  1  0  0  0  0
 30 31  1  0  0  0  0
 30 50  1  0  0  0  0
 31 51  1  0  0  0  0
 31 52  1  0  0  0  0
 31 53  1  0  0  0  0
M  END
> <compound_name>
ALP-POS-9c80c481-1

> <provenance>
{"isomeric_smiles": "CNC(=O)COC[C@]1(CCOc2c1cc(cc2)Cl)C(=O)Nc3cncc4c3cccc4", "inchi": "InChI=1S/C23H22ClN3O4/c1-25-21(28)13-30-14-23(8-9-31-20-7-6-16(24)10-18(20)23)22(29)27-19-12-26-11-15-4-2-3-5-17(15)19/h2-7,10-12H,8-9,13-14H2,1H3,(H,25,28)(H,27,29)/t23-/m0/s1", "inchi_key": "ZVIGUBNCYLIRDY-QHCPKHFHSA-N", "fixed_inchi": "InChI=1/C23H22ClN3O4/c1-25-21(28)13-30-14-23(8-9-31-20-7-6-16(24)10-18(20)23)22(29)27-19-12-26-11-15-4-2-3-5-17(15)19/h2-7,10-12H,8-9,13-14H2,1H3,(H,25,28)(H,27,29)/t23-/m0/s1/f/h25,27H", "fixed_inchikey": "ZVIGUBNCYLIRDY-PDLQQGPENA-N"}

> <data_format>
sdf

$$$$
