LIG(A-305)
  -OEChem-06042511353D

 32 34  0     0  0  0  0  0  0999 V2000
    8.9491    0.9080   21.1692 O   0  0  0  0  0  0  0  0  0  0  0  0
    8.5730   -0.2190   21.4801 C   0  0  0  0  0  0  0  0  0  0  0  0
    8.9870   -0.8641   22.7891 C   0  0  0  0  0  0  0  0  0  0  0  0
   10.4650   -0.6631   23.0251 C   0  0  0  0  0  0  0  0  0  0  0  0
   10.9180    0.2788   23.9402 C   0  0  0  0  0  0  0  0  0  0  0  0
   12.2550    0.6438   23.9792 C   0  0  0  0  0  0  0  0  0  0  0  0
   13.1650    0.0528   23.1132 C   0  0  0  0  0  0  0  0  0  0  0  0
   11.3890   -1.2971   22.2001 C   0  0  0  0  0  0  0  0  0  0  0  0
   12.7170   -0.9302   22.2541 C   0  0  0  0  0  0  0  0  0  0  0  0
   13.8580   -1.7462   21.2191 Cl  0  0  0  0  0  0  0  0  0  0  0  0
    7.7450   -0.9579   20.7201 N   0  0  0  0  0  0  0  0  0  0  0  0
    7.0810   -0.3549   19.6591 N   0  0  0  0  0  0  0  0  0  0  0  0
    5.8971    0.3732   19.7571 C   0  0  0  0  0  0  0  0  0  0  0  0
    5.6821    0.8492   18.4631 C   0  0  0  0  0  0  0  0  0  0  0  0
    6.6801    0.3832   17.6001 N   0  0  0  0  0  0  0  0  0  0  0  0
    7.4801   -0.3168   18.3641 C   0  0  0  0  0  0  0  0  0  0  0  0
    5.1331    0.7941   20.8381 C   0  0  0  0  0  0  0  0  0  0  0  0
    4.1201    1.7142   20.5921 C   0  0  0  0  0  0  0  0  0  0  0  0
    3.8831    2.1933   19.3012 C   0  0  0  0  0  0  0  0  0  0  0  0
    4.6591    1.7663   18.2272 C   0  0  0  0  0  0  0  0  0  0  0  0
    8.4217   -0.4065   23.6144 H   0  0  0  0  0  0  0  0  0  0  0  0
    8.7688   -1.9415   22.7483 H   0  0  0  0  0  0  0  0  0  0  0  0
   10.2207    0.7321   24.6292 H   0  0  0  0  0  0  0  0  0  0  0  0
   12.5895    1.3896   24.6850 H   0  0  0  0  0  0  0  0  0  0  0  0
   14.2016    0.3558   23.1117 H   0  0  0  0  0  0  0  0  0  0  0  0
   11.0675   -2.0728   21.5209 H   0  0  0  0  0  0  0  0  0  0  0  0
    7.6091   -1.9290   20.9162 H   0  0  0  0  0  0  0  0  0  0  0  0
    8.3673   -0.8134   17.9999 H   0  0  0  0  0  0  0  0  0  0  0  0
    5.3193    0.4202   21.8340 H   0  0  0  0  0  0  0  0  0  0  0  0
    3.5078    2.0635   21.4104 H   0  0  0  0  0  0  0  0  0  0  0  0
    3.0875    2.9042   19.1343 H   0  0  0  0  0  0  0  0  0  0  0  0
    4.4723    2.1382   17.2306 H   0  0  0  0  0  0  0  0  0  0  0  0
  1  2  2  0  0  0  0
  2  3  1  0  0  0  0
  2 11  1  0  0  0  0
  3  4  1  0  0  0  0
  3 21  1  0  0  0  0
  3 22  1  0  0  0  0
  4  5  2  0  0  0  0
  4  8  1  0  0  0  0
  5  6  1  0  0  0  0
  5 23  1  0  0  0  0
  6  7  2  0  0  0  0
  6 24  1  0  0  0  0
  7  9  1  0  0  0  0
  7 25  1  0  0  0  0
  8  9  2  0  0  0  0
  8 26  1  0  0  0  0
  9 10  1  0  0  0  0
 11 12  1  0  0  0  0
 11 27  1  0  0  0  0
 12 13  1  0  0  0  0
 12 16  1  0  0  0  0
 13 14  2  0  0  0  0
 13 17  1  0  0  0  0
 14 15  1  0  0  0  0
 14 20  1  0  0  0  0
 15 16  2  0  0  0  0
 16 28  1  0  0  0  0
 17 18  2  0  0  0  0
 17 29  1  0  0  0  0
 18 19  1  0  0  0  0
 18 30  1  0  0  0  0
 19 20  2  0  0  0  0
 19 31  1  0  0  0  0
 20 32  1  0  0  0  0
M  END
> <compound_name>
JAN-GHE-5a013bed-2

> <provenance>
{"isomeric_smiles": "c1ccc2c(c1)ncn2NC(=O)Cc3cccc(c3)Cl", "inchi": "InChI=1S/C15H12ClN3O/c16-12-5-3-4-11(8-12)9-15(20)18-19-10-17-13-6-1-2-7-14(13)19/h1-8,10H,9H2,(H,18,20)", "inchi_key": "YHLCUCKEOZVUDL-UHFFFAOYSA-N", "fixed_inchi": "InChI=1/C15H12ClN3O/c16-12-5-3-4-11(8-12)9-15(20)18-19-10-17-13-6-1-2-7-14(13)19/h1-8,10H,9H2,(H,18,20)/f/h18H", "fixed_inchikey": "YHLCUCKEOZVUDL-GPQMBLKYNA-N"}

> <data_format>
sdf

$$$$
