LIG(A-306)
  -OEChem-06042511413D

 45 47  0     1  0  0  0  0  0999 V2000
    2.8531    0.7010   23.9348 O   0  0  0  0  0  0  0  0  0  0  0  0
    2.8280    2.1213   24.0809 S   0  0  0  0  0  0  0  0  0  0  0  0
    3.0993    2.6873   25.3647 O   0  0  0  0  0  0  0  0  0  0  0  0
    1.2722    2.7152   23.5340 C   0  0  0  0  0  0  0  0  0  0  0  0
    3.9631    2.7212   23.0598 N   0  0  2  0  0  0  0  0  0  0  0  0
    4.5108    4.0546   23.3474 C   0  0  0  0  0  0  0  0  0  0  0  0
    4.1628    2.1203   21.7567 C   0  0  0  0  0  0  0  0  0  0  0  0
    5.1909    1.1991   21.5710 C   0  0  0  0  0  0  0  0  0  0  0  0
    5.5950    0.8079   20.2700 C   0  0  0  0  0  0  0  0  0  0  0  0
    4.9060    1.3589   19.1528 C   0  0  0  0  0  0  0  0  0  0  0  0
    3.8328    2.2539   19.3804 C   0  0  0  0  0  0  0  0  0  0  0  0
    3.4726    2.6113   20.6453 C   0  0  0  0  0  0  0  0  0  0  0  0
    6.6962   -0.0641   20.0095 C   0  0  0  0  0  0  0  0  0  0  0  0
    7.0225   -0.3200   18.6781 C   0  0  0  0  0  0  0  0  0  0  0  0
    6.3844    0.1976   17.6198 N   0  0  0  0  0  0  0  0  0  0  0  0
    5.3601    1.0065   17.8570 C   0  0  0  0  0  0  0  0  0  0  0  0
    7.4383   -0.5500   21.1020 N   0  0  0  0  0  0  0  0  0  0  0  0
    8.5405   -0.0081   21.6646 C   0  0  0  0  0  0  0  0  0  0  0  0
    9.0206    1.0737   21.3210 O   0  0  0  0  0  0  0  0  0  0  0  0
    9.1579   -0.8519   22.7613 C   0  0  0  0  0  0  0  0  0  0  0  0
   10.6196   -0.5419   22.9907 C   0  0  0  0  0  0  0  0  0  0  0  0
   11.5942   -1.1500   22.2066 C   0  0  0  0  0  0  0  0  0  0  0  0
   12.9131   -0.7563   22.3304 C   0  0  0  0  0  0  0  0  0  0  0  0
   14.1124   -1.5026   21.3135 Cl  0  0  0  0  0  0  0  0  0  0  0  0
   13.3011    0.2165   23.2283 C   0  0  0  0  0  0  0  0  0  0  0  0
   12.3384    0.7893   24.0413 C   0  0  0  0  0  0  0  0  0  0  0  0
   11.0086    0.4136   23.9225 C   0  0  0  0  0  0  0  0  0  0  0  0
    1.2386    3.8094   23.6410 H   0  0  0  0  0  0  0  0  0  0  0  0
    1.1277    2.4456   22.4774 H   0  0  0  0  0  0  0  0  0  0  0  0
    0.4735    2.2629   24.1403 H   0  0  0  0  0  0  0  0  0  0  0  0
    5.2550    4.3190   22.5817 H   0  0  0  0  0  0  0  0  0  0  0  0
    3.6971    4.7948   23.3387 H   0  0  0  0  0  0  0  0  0  0  0  0
    4.9901    4.0483   24.3375 H   0  0  0  0  0  0  0  0  0  0  0  0
    5.6879    0.7765   22.4316 H   0  0  0  0  0  0  0  0  0  0  0  0
    3.2912    2.6596   18.5387 H   0  0  0  0  0  0  0  0  0  0  0  0
    2.6408    3.2845   20.7909 H   0  0  0  0  0  0  0  0  0  0  0  0
    7.8515   -0.9851   18.4858 H   0  0  0  0  0  0  0  0  0  0  0  0
    4.8385    1.4234   17.0081 H   0  0  0  0  0  0  0  0  0  0  0  0
    7.1096   -1.4008   21.5120 H   0  0  0  0  0  0  0  0  0  0  0  0
    8.6092   -0.6675   23.6967 H   0  0  0  0  0  0  0  0  0  0  0  0
    9.0634   -1.9120   22.4836 H   0  0  0  0  0  0  0  0  0  0  0  0
   11.3221   -1.9249   21.5053 H   0  0  0  0  0  0  0  0  0  0  0  0
   14.3340    0.5245   23.2954 H   0  0  0  0  0  0  0  0  0  0  0  0
   12.6239    1.5322   24.7713 H   0  0  0  0  0  0  0  0  0  0  0  0
   10.2665    0.8688   24.5616 H   0  0  0  0  0  0  0  0  0  0  0  0
  1  2  2  0  0  0  0
  2  3  2  0  0  0  0
  2  4  1  0  0  0  0
  2  5  1  0  0  0  0
  4 28  1  0  0  0  0
  4 29  1  0  0  0  0
  4 30  1  0  0  0  0
  5  6  1  0  0  0  0
  5  7  1  0  0  0  0
  6 31  1  0  0  0  0
  6 32  1  0  0  0  0
  6 33  1  0  0  0  0
  7  8  2  0  0  0  0
  7 12  1  0  0  0  0
  8  9  1  0  0  0  0
  8 34  1  0  0  0  0
  9 10  2  0  0  0  0
  9 13  1  0  0  0  0
 10 11  1  0  0  0  0
 10 16  1  0  0  0  0
 11 12  2  0  0  0  0
 11 35  1  0  0  0  0
 12 36  1  0  0  0  0
 13 14  2  0  0  0  0
 13 17  1  0  0  0  0
 14 15  1  0  0  0  0
 14 37  1  0  0  0  0
 15 16  2  0  0  0  0
 16 38  1  0  0  0  0
 17 18  1  0  0  0  0
 17 39  1  0  0  0  0
 18 19  2  0  0  0  0
 18 20  1  0  0  0  0
 20 21  1  0  0  0  0
 20 40  1  0  0  0  0
 20 41  1  0  0  0  0
 21 22  2  0  0  0  0
 21 27  1  0  0  0  0
 22 23  1  0  0  0  0
 22 42  1  0  0  0  0
 23 24  1  0  0  0  0
 23 25  2  0  0  0  0
 25 26  1  0  0  0  0
 25 43  1  0  0  0  0
 26 27  2  0  0  0  0
 26 44  1  0  0  0  0
 27 45  1  0  0  0  0
M  END
> <compound_name>
MAT-POS-90fd5f68-28

> <provenance>
{"isomeric_smiles": "C[N@](c1ccc2cncc(c2c1)NC(=O)Cc3cccc(c3)Cl)S(=O)(=O)C", "inchi": "InChI=1S/C19H18ClN3O3S/c1-23(27(2,25)26)16-7-6-14-11-21-12-18(17(14)10-16)22-19(24)9-13-4-3-5-15(20)8-13/h3-8,10-12H,9H2,1-2H3,(H,22,24)", "inchi_key": "NWQAGGFPSKOROJ-UHFFFAOYSA-N", "fixed_inchi": "InChI=1/C19H18ClN3O3S/c1-23(27(2,25)26)16-7-6-14-11-21-12-18(17(14)10-16)22-19(24)9-13-4-3-5-15(20)8-13/h3-8,10-12H,9H2,1-2H3,(H,22,24)/f/h22H", "fixed_inchikey": "NWQAGGFPSKOROJ-QWOVJGMINA-N"}

> <data_format>
sdf

$$$$
