LIG(A-305)
  -OEChem-06042511373D

 33 35  0     0  0  0  0  0  0999 V2000
    8.9110    0.8084   21.0402 O   0  0  0  0  0  0  0  0  0  0  0  0
    8.3551   -0.2416   21.3582 C   0  0  0  0  0  0  0  0  0  0  0  0
    8.8561   -1.0955   22.5063 C   0  0  0  0  0  0  0  0  0  0  0  0
   10.3110   -0.8023   22.7964 C   0  0  0  0  0  0  0  0  0  0  0  0
   10.6758    0.1508   23.7364 C   0  0  0  0  0  0  0  0  0  0  0  0
   12.0067    0.4959   23.9176 C   0  0  0  0  0  0  0  0  0  0  0  0
   12.9959   -0.1080   23.1557 C   0  0  0  0  0  0  0  0  0  0  0  0
   11.3072   -1.4362   22.0616 C   0  0  0  0  0  0  0  0  0  0  0  0
   12.6261   -1.0761   22.2417 C   0  0  0  0  0  0  0  0  0  0  0  0
   13.8513   -1.8540   21.2689 Cl  0  0  0  0  0  0  0  0  0  0  0  0
    7.2482   -0.7008   20.7511 N   0  0  0  0  0  0  0  0  0  0  0  0
    6.5443   -0.0829   19.6959 C   0  0  0  0  0  0  0  0  0  0  0  0
    5.3782    0.6800   20.0128 C   0  0  0  0  0  0  0  0  0  0  0  0
    4.8500    0.8150   21.3157 C   0  0  0  0  0  0  0  0  0  0  0  0
    3.7349    1.5739   21.5185 C   0  0  0  0  0  0  0  0  0  0  0  0
    3.1409    2.2008   20.4264 C   0  0  0  0  0  0  0  0  0  0  0  0
    3.5891    2.1217   19.1825 N   0  0  0  0  0  0  0  0  0  0  0  0
    4.7172    1.3629   18.9647 C   0  0  0  0  0  0  0  0  0  0  0  0
    5.3074    1.2229   17.6667 C   0  0  0  0  0  0  0  0  0  0  0  0
    6.3905    0.5230   17.3739 N   0  0  0  0  0  0  0  0  0  0  0  0
    6.9905   -0.1189   18.3800 C   0  0  0  0  0  0  0  0  0  0  0  0
    8.2584   -0.8797   23.4042 H   0  0  0  0  0  0  0  0  0  0  0  0
    8.7479   -2.1573   22.2403 H   0  0  0  0  0  0  0  0  0  0  0  0
    9.9143    0.6295   24.3341 H   0  0  0  0  0  0  0  0  0  0  0  0
   12.2741    1.2382   24.6550 H   0  0  0  0  0  0  0  0  0  0  0  0
   14.0322    0.1721   23.2742 H   0  0  0  0  0  0  0  0  0  0  0  0
   11.0486   -2.2083   21.3520 H   0  0  0  0  0  0  0  0  0  0  0  0
    6.8851   -1.5719   21.0817 H   0  0  0  0  0  0  0  0  0  0  0  0
    5.3272    0.3193   22.1482 H   0  0  0  0  0  0  0  0  0  0  0  0
    3.3199    1.6866   22.5092 H   0  0  0  0  0  0  0  0  0  0  0  0
    2.2548    2.7915   20.6057 H   0  0  0  0  0  0  0  0  0  0  0  0
    4.8220    1.7374   16.8507 H   0  0  0  0  0  0  0  0  0  0  0  0
    7.8735   -0.6996   18.1581 H   0  0  0  0  0  0  0  0  0  0  0  0
  1  2  2  0  0  0  0
  2  3  1  0  0  0  0
  2 11  1  0  0  0  0
  3  4  1  0  0  0  0
  3 22  1  0  0  0  0
  3 23  1  0  0  0  0
  4  5  2  0  0  0  0
  4  8  1  0  0  0  0
  5  6  1  0  0  0  0
  5 24  1  0  0  0  0
  6  7  2  0  0  0  0
  6 25  1  0  0  0  0
  7  9  1  0  0  0  0
  7 26  1  0  0  0  0
  8  9  2  0  0  0  0
  8 27  1  0  0  0  0
  9 10  1  0  0  0  0
 11 12  1  0  0  0  0
 11 28  1  0  0  0  0
 12 13  2  0  0  0  0
 12 21  1  0  0  0  0
 13 14  1  0  0  0  0
 13 18  1  0  0  0  0
 14 15  2  0  0  0  0
 14 29  1  0  0  0  0
 15 16  1  0  0  0  0
 15 30  1  0  0  0  0
 16 17  2  0  0  0  0
 16 31  1  0  0  0  0
 17 18  1  0  0  0  0
 18 19  2  0  0  0  0
 19 20  1  0  0  0  0
 19 32  1  0  0  0  0
 20 21  2  0  0  0  0
 21 33  1  0  0  0  0
M  END
> <compound_name>
MIC-UNK-08cd9c58-1

> <provenance>
{"isomeric_smiles": "c1cc(cc(c1)Cl)CC(=O)Nc2cncc3c2cccn3", "inchi": "InChI=1S/C16H12ClN3O/c17-12-4-1-3-11(7-12)8-16(21)20-15-10-18-9-14-13(15)5-2-6-19-14/h1-7,9-10H,8H2,(H,20,21)", "inchi_key": "ACBAQCKSRSEYGV-UHFFFAOYSA-N", "fixed_inchi": "InChI=1/C16H12ClN3O/c17-12-4-1-3-11(7-12)8-16(21)20-15-10-18-9-14-13(15)5-2-6-19-14/h1-7,9-10H,8H2,(H,20,21)/f/h20H", "fixed_inchikey": "ACBAQCKSRSEYGV-UYBDAZJANA-N"}

> <data_format>
sdf

$$$$
