LIG(A-305)
  -OEChem-06042511323D

 40 41  0     1  0  0  0  0  0999 V2000
   14.0374   -1.4210   21.1731 Cl  0  0  0  0  0  0  0  0  0  0  0  0
   12.9084   -0.6031   22.2192 C   0  0  0  0  0  0  0  0  0  0  0  0
   13.3744    0.3608   23.0893 C   0  0  0  0  0  0  0  0  0  0  0  0
   12.4854    0.9368   23.9823 C   0  0  0  0  0  0  0  0  0  0  0  0
   11.1504    0.5628   23.9793 C   0  0  0  0  0  0  0  0  0  0  0  0
   11.5744   -0.9701   22.1881 C   0  0  0  0  0  0  0  0  0  0  0  0
   10.6754   -0.3711   23.0672 C   0  0  0  0  0  0  0  0  0  0  0  0
    9.1744   -0.5931   22.9171 C   0  0  2  0  0  0  0  0  0  0  0  0
    8.7184   -1.9781   23.2140 N   0  3  0  0  0  0  0  0  0  0  0  0
    9.5973   -2.7372   24.1070 C   0  0  0  0  0  0  0  0  0  0  0  0
    7.3623   -1.9852   23.7600 C   0  0  0  0  0  0  0  0  0  0  0  0
    8.6144    0.0360   21.6282 C   0  0  0  0  0  0  0  0  0  0  0  0
    9.1164    1.0560   21.1723 O   0  0  0  0  0  0  0  0  0  0  0  0
    7.5414   -0.5760   21.0711 N   0  0  0  0  0  0  0  0  0  0  0  0
    6.7624   -0.0459   20.0161 C   0  0  0  0  0  0  0  0  0  0  0  0
    5.5584    0.6301   20.3052 C   0  0  0  0  0  0  0  0  0  0  0  0
    5.0004    0.7050   21.7032 C   0  0  0  0  0  0  0  0  0  0  0  0
    4.9004    1.2452   19.2452 C   0  0  0  0  0  0  0  0  0  0  0  0
    5.4375    1.1783   17.9752 C   0  0  0  0  0  0  0  0  0  0  0  0
    6.5755    0.5323   17.6872 N   0  0  0  0  0  0  0  0  0  0  0  0
    7.2064   -0.0758   18.6951 C   0  0  0  0  0  0  0  0  0  0  0  0
   14.4119    0.6606   23.0745 H   0  0  0  0  0  0  0  0  0  0  0  0
   12.8338    1.6803   24.6839 H   0  0  0  0  0  0  0  0  0  0  0  0
   10.4714    1.0028   24.6947 H   0  0  0  0  0  0  0  0  0  0  0  0
   11.2325   -1.7165   21.4864 H   0  0  0  0  0  0  0  0  0  0  0  0
    8.7342    0.0163   23.7201 H   0  0  0  0  0  0  0  0  0  0  0  0
    8.6890   -2.4676   22.3425 H   0  0  0  0  0  0  0  0  0  0  0  0
    9.1796   -3.7422   24.2662 H   0  0  0  0  0  0  0  0  0  0  0  0
   10.5955   -2.8229   23.6529 H   0  0  0  0  0  0  0  0  0  0  0  0
    9.6772   -2.2163   25.0725 H   0  0  0  0  0  0  0  0  0  0  0  0
    7.0557   -3.0209   23.9682 H   0  0  0  0  0  0  0  0  0  0  0  0
    7.3395   -1.4018   24.6922 H   0  0  0  0  0  0  0  0  0  0  0  0
    6.6712   -1.5379   23.0305 H   0  0  0  0  0  0  0  0  0  0  0  0
    7.2803   -1.4707   21.4335 H   0  0  0  0  0  0  0  0  0  0  0  0
    5.7261    1.2044   22.3619 H   0  0  0  0  0  0  0  0  0  0  0  0
    4.0609    1.2769   21.6926 H   0  0  0  0  0  0  0  0  0  0  0  0
    4.8066   -0.3118   22.0754 H   0  0  0  0  0  0  0  0  0  0  0  0
    3.9735    1.7728   19.4150 H   0  0  0  0  0  0  0  0  0  0  0  0
    4.9126    1.6728   17.1712 H   0  0  0  0  0  0  0  0  0  0  0  0
    8.1118   -0.6215   18.4742 H   0  0  0  0  0  0  0  0  0  0  0  0
  1  2  1  0  0  0  0
  2  3  2  0  0  0  0
  2  6  1  0  0  0  0
  3  4  1  0  0  0  0
  3 22  1  0  0  0  0
  4  5  2  0  0  0  0
  4 23  1  0  0  0  0
  5  7  1  0  0  0  0
  5 24  1  0  0  0  0
  6  7  2  0  0  0  0
  6 25  1  0  0  0  0
  7  8  1  0  0  0  0
  8  9  1  0  0  0  0
  8 12  1  0  0  0  0
  8 26  1  0  0  0  0
  9 10  1  0  0  0  0
  9 11  1  0  0  0  0
  9 27  1  0  0  0  0
 10 28  1  0  0  0  0
 10 29  1  0  0  0  0
 10 30  1  0  0  0  0
 11 31  1  0  0  0  0
 11 32  1  0  0  0  0
 11 33  1  0  0  0  0
 12 13  2  0  0  0  0
 12 14  1  0  0  0  0
 14 15  1  0  0  0  0
 14 34  1  0  0  0  0
 15 16  2  0  0  0  0
 15 21  1  0  0  0  0
 16 17  1  0  0  0  0
 16 18  1  0  0  0  0
 17 35  1  0  0  0  0
 17 36  1  0  0  0  0
 17 37  1  0  0  0  0
 18 19  2  0  0  0  0
 18 38  1  0  0  0  0
 19 20  1  0  0  0  0
 19 39  1  0  0  0  0
 20 21  2  0  0  0  0
 21 40  1  0  0  0  0
M  CHG  1   9   1
M  END
> <compound_name>
JAN-GHE-83b26c96-10

> <provenance>
{"isomeric_smiles": "Cc1ccncc1NC(=O)[C@H](c2cccc(c2)Cl)[NH+](C)C", "inchi": "InChI=1S/C16H18ClN3O/c1-11-7-8-18-10-14(11)19-16(21)15(20(2)3)12-5-4-6-13(17)9-12/h4-10,15H,1-3H3,(H,19,21)/p+1/t15-/m0/s1", "inchi_key": "XRWOUNDNLXZKFZ-HNNXBMFYSA-O", "fixed_inchi": "InChI=1/C16H18ClN3O/c1-11-7-8-18-10-14(11)19-16(21)15(20(2)3)12-5-4-6-13(17)9-12/h4-10,15H,1-3H3,(H,19,21)/p+1/t15-/m0/s1/fC16H19ClN3O/h19-20H/q+1", "fixed_inchikey": "XRWOUNDNLXZKFZ-KPAJRQKXNA-O"}

> <data_format>
sdf

$$$$
