MAT-POS-5d65ec79-1
  -OEChem-06162517063D

 52 55  0     1  0  0  0  0  0999 V2000
    9.3688    1.2093   21.0176 O   0  0  0  0  0  0  0  0  0  0  0  0
    8.8260    0.2268   21.5066 C   0  0  0  0  0  0  0  0  0  0  0  0
    9.3707   -0.4298   22.7993 C   0  0  1  0  0  0  0  0  0  0  0  0
   10.8722   -0.1443   22.7709 C   0  0  0  0  0  0  0  0  0  0  0  0
   11.7479   -0.9351   22.0329 C   0  0  0  0  0  0  0  0  0  0  0  0
   13.0934   -0.6255   22.0256 C   0  0  0  0  0  0  0  0  0  0  0  0
   14.1499   -1.5049   20.9532 Cl  0  0  0  0  0  0  0  0  0  0  0  0
   13.6063    0.4239   22.7630 C   0  0  0  0  0  0  0  0  0  0  0  0
   12.7466    1.2116   23.5039 C   0  0  0  0  0  0  0  0  0  0  0  0
   11.3911    0.9251   23.4954 C   0  0  0  0  0  0  0  0  0  0  0  0
   10.5975    1.7386   24.2605 O   0  0  0  0  0  0  0  0  0  0  0  0
    9.5352    1.0193   24.9017 C   0  0  0  0  0  0  0  0  0  0  0  0
    8.6090    0.3380   23.9112 C   0  0  0  0  0  0  0  0  0  0  0  0
    9.1270   -1.9656   22.8415 C   0  0  0  0  0  0  0  0  0  0  0  0
    9.4586   -2.6688   24.1450 C   0  0  0  0  0  0  0  0  0  0  0  0
   10.1565   -2.1344   24.9968 O   0  0  0  0  0  0  0  0  0  0  0  0
    9.0164   -3.9308   24.3005 N   0  0  0  0  0  0  0  0  0  0  0  0
    7.7185   -4.4211   23.8319 C   0  0  0  0  0  0  0  0  0  0  0  0
    9.8305   -4.9249   25.0055 C   0  0  0  0  0  0  0  0  0  0  0  0
    7.7050   -0.3196   20.9927 N   0  0  0  0  0  0  0  0  0  0  0  0
    6.9419    0.1463   19.9010 C   0  0  0  0  0  0  0  0  0  0  0  0
    5.7954    0.9530   20.1771 C   0  0  0  0  0  0  0  0  0  0  0  0
    5.3950    1.3331   21.4850 C   0  0  0  0  0  0  0  0  0  0  0  0
    4.2984    2.1250   21.6809 C   0  0  0  0  0  0  0  0  0  0  0  0
    3.5492    2.5749   20.6011 C   0  0  0  0  0  0  0  0  0  0  0  0
    3.8997    2.2447   19.3235 C   0  0  0  0  0  0  0  0  0  0  0  0
    5.0303    1.4280   19.0744 C   0  0  0  0  0  0  0  0  0  0  0  0
    5.4567    1.0718   17.7736 C   0  0  0  0  0  0  0  0  0  0  0  0
    6.5274    0.3362   17.5159 N   0  0  0  0  0  0  0  0  0  0  0  0
    7.2376   -0.1084   18.5618 C   0  0  0  0  0  0  0  0  0  0  0  0
   11.3791   -1.7814   21.4724 H   0  0  0  0  0  0  0  0  0  0  0  0
   14.6671    0.6262   22.7603 H   0  0  0  0  0  0  0  0  0  0  0  0
   13.1266    2.0405   24.0827 H   0  0  0  0  0  0  0  0  0  0  0  0
    9.9745    0.2530   25.5574 H   0  0  0  0  0  0  0  0  0  0  0  0
    8.9465    1.7253   25.5060 H   0  0  0  0  0  0  0  0  0  0  0  0
    7.9743   -0.3750   24.4578 H   0  0  0  0  0  0  0  0  0  0  0  0
    7.9768    1.1039   23.4383 H   0  0  0  0  0  0  0  0  0  0  0  0
    8.0621   -2.1408   22.6289 H   0  0  0  0  0  0  0  0  0  0  0  0
    9.7389   -2.4228   22.0500 H   0  0  0  0  0  0  0  0  0  0  0  0
    7.6135   -5.4855   24.0890 H   0  0  0  0  0  0  0  0  0  0  0  0
    6.9138   -3.8465   24.3139 H   0  0  0  0  0  0  0  0  0  0  0  0
    7.6530   -4.2995   22.7406 H   0  0  0  0  0  0  0  0  0  0  0  0
    9.2983   -5.8873   25.0265 H   0  0  0  0  0  0  0  0  0  0  0  0
   10.7911   -5.0484   24.4840 H   0  0  0  0  0  0  0  0  0  0  0  0
   10.0137   -4.5848   26.0355 H   0  0  0  0  0  0  0  0  0  0  0  0
    7.3761   -1.1526   21.4376 H   0  0  0  0  0  0  0  0  0  0  0  0
    5.9646    0.9918   22.3367 H   0  0  0  0  0  0  0  0  0  0  0  0
    4.0118    2.4035   22.6842 H   0  0  0  0  0  0  0  0  0  0  0  0
    2.6802    3.1923   20.7741 H   0  0  0  0  0  0  0  0  0  0  0  0
    3.3100    2.6094   18.4955 H   0  0  0  0  0  0  0  0  0  0  0  0
    4.8714    1.4224   16.9364 H   0  0  0  0  0  0  0  0  0  0  0  0
    8.1080   -0.7119   18.3509 H   0  0  0  0  0  0  0  0  0  0  0  0
  1  2  2  0  0  0  0
  2  3  1  0  0  0  0
  2 20  1  0  0  0  0
  3  4  1  0  0  0  0
  3 13  1  0  0  0  0
  3 14  1  6  0  0  0
  4  5  2  0  0  0  0
  4 10  1  0  0  0  0
  5  6  1  0  0  0  0
  5 31  1  0  0  0  0
  6  7  1  0  0  0  0
  6  8  2  0  0  0  0
  8  9  1  0  0  0  0
  8 32  1  0  0  0  0
  9 10  2  0  0  0  0
  9 33  1  0  0  0  0
 10 11  1  0  0  0  0
 11 12  1  0  0  0  0
 12 13  1  0  0  0  0
 12 34  1  0  0  0  0
 12 35  1  0  0  0  0
 13 36  1  0  0  0  0
 13 37  1  0  0  0  0
 14 15  1  0  0  0  0
 14 38  1  0  0  0  0
 14 39  1  0  0  0  0
 15 16  2  0  0  0  0
 15 17  1  0  0  0  0
 17 18  1  0  0  0  0
 17 19  1  0  0  0  0
 18 40  1  0  0  0  0
 18 41  1  0  0  0  0
 18 42  1  0  0  0  0
 19 43  1  0  0  0  0
 19 44  1  0  0  0  0
 19 45  1  0  0  0  0
 20 21  1  0  0  0  0
 20 46  1  0  0  0  0
 21 22  1  0  0  0  0
 21 30  2  0  0  0  0
 22 23  2  0  0  0  0
 22 27  1  0  0  0  0
 23 24  1  0  0  0  0
 23 47  1  0  0  0  0
 24 25  2  0  0  0  0
 24 48  1  0  0  0  0
 25 26  1  0  0  0  0
 25 49  1  0  0  0  0
 26 27  2  0  0  0  0
 26 50  1  0  0  0  0
 27 28  1  0  0  0  0
 28 29  2  0  0  0  0
 28 51  1  0  0  0  0
 29 30  1  0  0  0  0
 30 52  1  0  0  0  0
M  END
> <compound_name>
MAT-POS-5d65ec79-1

> <provenance>
{"isomeric_smiles": "CN(C)C(=O)C[C@]1(CCOc2c1cc(cc2)Cl)C(=O)Nc3cncc4c3cccc4", "inchi": "InChI=1S/C23H22ClN3O3/c1-27(2)21(28)12-23(9-10-30-20-8-7-16(24)11-18(20)23)22(29)26-19-14-25-13-15-5-3-4-6-17(15)19/h3-8,11,13-14H,9-10,12H2,1-2H3,(H,26,29)/t23-/m0/s1", "inchi_key": "KPAUUUFZYYGHRE-QHCPKHFHSA-N", "fixed_inchi": "InChI=1/C23H22ClN3O3/c1-27(2)21(28)12-23(9-10-30-20-8-7-16(24)11-18(20)23)22(29)26-19-14-25-13-15-5-3-4-6-17(15)19/h3-8,11,13-14H,9-10,12H2,1-2H3,(H,26,29)/t23-/m0/s1/f/h26H", "fixed_inchikey": "KPAUUUFZYYGHRE-SEWZDYADNA-N"}

> <data_format>
sdf

$$$$
