LIG(A-306)
  -OEChem-06042511393D

 38 40  0     1  0  0  0  0  0999 V2000
   13.9002   -1.6050   21.3744 Cl  0  0  0  0  0  0  0  0  0  0  0  0
   12.5842   -0.9164   22.2700 C   0  0  0  0  0  0  0  0  0  0  0  0
   12.7983    0.1234   23.1656 C   0  0  0  0  0  0  0  0  0  0  0  0
   14.3993    0.6660   23.5412 Cl  0  0  0  0  0  0  0  0  0  0  0  0
   11.7227    0.7516   23.7608 C   0  0  0  0  0  0  0  0  0  0  0  0
   10.4380    0.3320   23.4745 C   0  0  0  0  0  0  0  0  0  0  0  0
   11.2985   -1.3480   22.0037 C   0  0  0  0  0  0  0  0  0  0  0  0
   10.2089   -0.7198   22.5980 C   0  0  0  0  0  0  0  0  0  0  0  0
    8.8060   -1.1624   22.2589 C   0  0  1  0  0  0  0  0  0  0  0  0
    8.0408   -1.6058   23.3758 O   0  0  0  0  0  0  0  0  0  0  0  0
    7.3716   -0.5457   24.0698 C   0  0  0  0  0  0  0  0  0  0  0  0
    8.1179   -0.1860   21.3011 C   0  0  0  0  0  0  0  0  0  0  0  0
    8.6170    0.9145   21.0601 O   0  0  0  0  0  0  0  0  0  0  0  0
    7.0055   -0.6571   20.6996 N   0  0  0  0  0  0  0  0  0  0  0  0
    6.3090   -0.0778   19.6322 C   0  0  0  0  0  0  0  0  0  0  0  0
    5.2350    0.8161   19.9222 C   0  0  0  0  0  0  0  0  0  0  0  0
    4.7664    1.0887   21.2327 C   0  0  0  0  0  0  0  0  0  0  0  0
    3.7593    1.9845   21.4456 C   0  0  0  0  0  0  0  0  0  0  0  0
    3.1657    2.6477   20.3809 C   0  0  0  0  0  0  0  0  0  0  0  0
    3.5794    2.4171   19.1014 C   0  0  0  0  0  0  0  0  0  0  0  0
    4.6274    1.5023   18.8365 C   0  0  0  0  0  0  0  0  0  0  0  0
    5.1330    1.2537   17.5399 C   0  0  0  0  0  0  0  0  0  0  0  0
    6.1271    0.4198   17.2720 N   0  0  0  0  0  0  0  0  0  0  0  0
    6.6855   -0.2284   18.3007 C   0  0  0  0  0  0  0  0  0  0  0  0
   11.8851    1.5686   24.4482 H   0  0  0  0  0  0  0  0  0  0  0  0
    9.5997    0.8295   23.9394 H   0  0  0  0  0  0  0  0  0  0  0  0
   11.1390   -2.1774   21.3307 H   0  0  0  0  0  0  0  0  0  0  0  0
    8.9552   -2.0643   21.6472 H   0  0  0  0  0  0  0  0  0  0  0  0
    6.8038   -0.9614   24.9154 H   0  0  0  0  0  0  0  0  0  0  0  0
    8.1148    0.1730   24.4454 H   0  0  0  0  0  0  0  0  0  0  0  0
    6.6824   -0.0346   23.3815 H   0  0  0  0  0  0  0  0  0  0  0  0
    6.6377   -1.5159   21.0560 H   0  0  0  0  0  0  0  0  0  0  0  0
    5.2131    0.5800   22.0743 H   0  0  0  0  0  0  0  0  0  0  0  0
    3.4208    2.1792   22.4525 H   0  0  0  0  0  0  0  0  0  0  0  0
    2.3692    3.3528   20.5669 H   0  0  0  0  0  0  0  0  0  0  0  0
    3.1032    2.9369   18.2832 H   0  0  0  0  0  0  0  0  0  0  0  0
    4.6785    1.7784   16.7126 H   0  0  0  0  0  0  0  0  0  0  0  0
    7.4868   -0.9186   18.0820 H   0  0  0  0  0  0  0  0  0  0  0  0
  1  2  1  0  0  0  0
  2  3  2  0  0  0  0
  2  7  1  0  0  0  0
  3  4  1  0  0  0  0
  3  5  1  0  0  0  0
  5  6  2  0  0  0  0
  5 25  1  0  0  0  0
  6  8  1  0  0  0  0
  6 26  1  0  0  0  0
  7  8  2  0  0  0  0
  7 27  1  0  0  0  0
  8  9  1  0  0  0  0
  9 10  1  0  0  0  0
  9 12  1  0  0  0  0
  9 28  1  0  0  0  0
 10 11  1  0  0  0  0
 11 29  1  0  0  0  0
 11 30  1  0  0  0  0
 11 31  1  0  0  0  0
 12 13  2  0  0  0  0
 12 14  1  0  0  0  0
 14 15  1  0  0  0  0
 14 32  1  0  0  0  0
 15 16  2  0  0  0  0
 15 24  1  0  0  0  0
 16 17  1  0  0  0  0
 16 21  1  0  0  0  0
 17 18  2  0  0  0  0
 17 33  1  0  0  0  0
 18 19  1  0  0  0  0
 18 34  1  0  0  0  0
 19 20  2  0  0  0  0
 19 35  1  0  0  0  0
 20 21  1  0  0  0  0
 20 36  1  0  0  0  0
 21 22  2  0  0  0  0
 22 23  1  0  0  0  0
 22 37  1  0  0  0  0
 23 24  2  0  0  0  0
 24 38  1  0  0  0  0
M  END
> <compound_name>
MAT-POS-de59a476-2

> <provenance>
{"isomeric_smiles": "CO[C@H](c1ccc(c(c1)Cl)Cl)C(=O)Nc2cncc3c2cccc3", "inchi": "InChI=1S/C18H14Cl2N2O2/c1-24-17(11-6-7-14(19)15(20)8-11)18(23)22-16-10-21-9-12-4-2-3-5-13(12)16/h2-10,17H,1H3,(H,22,23)/t17-/m1/s1", "inchi_key": "HQIMBBKRSDUGNW-QGZVFWFLSA-N", "fixed_inchi": "InChI=1/C18H14Cl2N2O2/c1-24-17(11-6-7-14(19)15(20)8-11)18(23)22-16-10-21-9-12-4-2-3-5-13(12)16/h2-10,17H,1H3,(H,22,23)/t17-/m1/s1/f/h22H", "fixed_inchikey": "HQIMBBKRSDUGNW-VGUCUOCSNA-N"}

> <data_format>
sdf

$$$$
