LIG(A-306)
  -OEChem-06042511423D

 51 54  0     1  0  0  0  0  0999 V2000
   14.0041   -1.5440   21.3313 Cl  0  0  0  0  0  0  0  0  0  0  0  0
   12.8059   -0.7865   22.3433 C   0  0  0  0  0  0  0  0  0  0  0  0
   11.4900   -1.1932   22.2456 C   0  0  0  0  0  0  0  0  0  0  0  0
   13.1873    0.2285   23.1903 C   0  0  0  0  0  0  0  0  0  0  0  0
   12.2257    0.8507   23.9656 C   0  0  0  0  0  0  0  0  0  0  0  0
   10.8840    0.4840   23.8801 C   0  0  0  0  0  0  0  0  0  0  0  0
    9.8647    1.2069   24.7339 C   0  0  0  0  0  0  0  0  0  0  0  0
    8.4841    0.9751   24.2781 N   0  3  2  0  0  0  0  0  0  0  0  0
    7.4896    1.5939   25.1464 C   0  0  0  0  0  0  0  0  0  0  0  0
    6.7990    2.8024   24.5376 C   0  0  0  0  0  0  0  0  0  0  0  0
    5.9474    3.4160   25.1758 O   0  0  0  0  0  0  0  0  0  0  0  0
    7.1455    3.1428   23.2992 N   0  0  0  0  0  0  0  0  0  0  0  0
    6.5186    4.2447   22.5918 C   0  0  0  0  0  0  0  0  0  0  0  0
   10.5116   -0.5429   22.9990 C   0  0  0  0  0  0  0  0  0  0  0  0
    9.0448   -0.8869   22.8216 C   0  0  1  0  0  0  0  0  0  0  0  0
    8.2480   -0.4503   24.0510 C   0  0  0  0  0  0  0  0  0  0  0  0
    8.5151   -0.1227   21.6056 C   0  0  0  0  0  0  0  0  0  0  0  0
    8.9674    0.9731   21.2719 O   0  0  0  0  0  0  0  0  0  0  0  0
    7.4687   -0.7173   20.9828 N   0  0  0  0  0  0  0  0  0  0  0  0
    6.6886   -0.2164   19.9165 C   0  0  0  0  0  0  0  0  0  0  0  0
    5.5734    0.6204   20.2339 C   0  0  0  0  0  0  0  0  0  0  0  0
    5.0691    0.7900   21.5468 C   0  0  0  0  0  0  0  0  0  0  0  0
    4.0008    1.6010   21.7901 C   0  0  0  0  0  0  0  0  0  0  0  0
    3.4120    2.2665   20.7416 C   0  0  0  0  0  0  0  0  0  0  0  0
    2.3668    3.0904   21.0149 F   0  0  0  0  0  0  0  0  0  0  0  0
    3.8255    2.1571   19.4549 C   0  0  0  0  0  0  0  0  0  0  0  0
    4.9296    1.3161   19.1685 C   0  0  0  0  0  0  0  0  0  0  0  0
    5.4289    1.1196   17.8554 C   0  0  0  0  0  0  0  0  0  0  0  0
    6.4632    0.3429   17.5603 N   0  0  0  0  0  0  0  0  0  0  0  0
    7.0661   -0.2975   18.5739 C   0  0  0  0  0  0  0  0  0  0  0  0
   11.2198   -2.0086   21.5909 H   0  0  0  0  0  0  0  0  0  0  0  0
   14.2213    0.5346   23.2488 H   0  0  0  0  0  0  0  0  0  0  0  0
   12.5197    1.6339   24.6488 H   0  0  0  0  0  0  0  0  0  0  0  0
    9.9582    0.8529   25.7713 H   0  0  0  0  0  0  0  0  0  0  0  0
   10.0730    2.2862   24.6947 H   0  0  0  0  0  0  0  0  0  0  0  0
    8.4022    1.4220   23.3873 H   0  0  0  0  0  0  0  0  0  0  0  0
    6.7230    0.8417   25.3842 H   0  0  0  0  0  0  0  0  0  0  0  0
    7.9904    1.9126   26.0725 H   0  0  0  0  0  0  0  0  0  0  0  0
    7.8635    2.6209   22.8389 H   0  0  0  0  0  0  0  0  0  0  0  0
    6.9637    4.3387   21.5903 H   0  0  0  0  0  0  0  0  0  0  0  0
    5.4396    4.0529   22.4970 H   0  0  0  0  0  0  0  0  0  0  0  0
    6.6772    5.1778   23.1524 H   0  0  0  0  0  0  0  0  0  0  0  0
    8.9272   -1.9692   22.6638 H   0  0  0  0  0  0  0  0  0  0  0  0
    8.5773   -1.0250   24.9293 H   0  0  0  0  0  0  0  0  0  0  0  0
    7.1758   -0.6256   23.8791 H   0  0  0  0  0  0  0  0  0  0  0  0
    7.2171   -1.6245   21.3202 H   0  0  0  0  0  0  0  0  0  0  0  0
    5.5383    0.2684   22.3680 H   0  0  0  0  0  0  0  0  0  0  0  0
    3.6218    1.7192   22.7945 H   0  0  0  0  0  0  0  0  0  0  0  0
    3.3247    2.6986   18.6660 H   0  0  0  0  0  0  0  0  0  0  0  0
    4.9358    1.6350   17.0444 H   0  0  0  0  0  0  0  0  0  0  0  0
    7.9107   -0.9258   18.3324 H   0  0  0  0  0  0  0  0  0  0  0  0
  1  2  1  0  0  0  0
  2  3  2  0  0  0  0
  2  4  1  0  0  0  0
  3 14  1  0  0  0  0
  3 31  1  0  0  0  0
  4  5  2  0  0  0  0
  4 32  1  0  0  0  0
  5  6  1  0  0  0  0
  5 33  1  0  0  0  0
  6  7  1  0  0  0  0
  6 14  2  0  0  0  0
  7  8  1  0  0  0  0
  7 34  1  0  0  0  0
  7 35  1  0  0  0  0
  8  9  1  0  0  0  0
  8 16  1  0  0  0  0
  8 36  1  0  0  0  0
  9 10  1  0  0  0  0
  9 37  1  0  0  0  0
  9 38  1  0  0  0  0
 10 11  2  0  0  0  0
 10 12  1  0  0  0  0
 12 13  1  0  0  0  0
 12 39  1  0  0  0  0
 13 40  1  0  0  0  0
 13 41  1  0  0  0  0
 13 42  1  0  0  0  0
 14 15  1  0  0  0  0
 15 16  1  0  0  0  0
 15 17  1  0  0  0  0
 15 43  1  0  0  0  0
 16 44  1  0  0  0  0
 16 45  1  0  0  0  0
 17 18  2  0  0  0  0
 17 19  1  0  0  0  0
 19 20  1  0  0  0  0
 19 46  1  0  0  0  0
 20 21  2  0  0  0  0
 20 30  1  0  0  0  0
 21 22  1  0  0  0  0
 21 27  1  0  0  0  0
 22 23  2  0  0  0  0
 22 47  1  0  0  0  0
 23 24  1  0  0  0  0
 23 48  1  0  0  0  0
 24 25  1  0  0  0  0
 24 26  2  0  0  0  0
 26 27  1  0  0  0  0
 26 49  1  0  0  0  0
 27 28  2  0  0  0  0
 28 29  1  0  0  0  0
 28 50  1  0  0  0  0
 29 30  2  0  0  0  0
 30 51  1  0  0  0  0
M  CHG  1   8   1
M  END
> <compound_name>
ALP-POS-6f6ae286-5

> <provenance>
{"isomeric_smiles": "CNC(=O)C[N@H+]1Cc2ccc(cc2[C@@H](C1)C(=O)Nc3cncc4c3ccc(c4)F)Cl", "inchi": "InChI=1S/C22H20ClFN4O2/c1-25-21(29)12-28-10-13-2-3-15(23)7-18(13)19(11-28)22(30)27-20-9-26-8-14-6-16(24)4-5-17(14)20/h2-9,19H,10-12H2,1H3,(H,25,29)(H,27,30)/p+1/t19-/m1/s1", "inchi_key": "HSFVRLOBMRHDCQ-LJQANCHMSA-O", "fixed_inchi": "InChI=1/C22H20ClFN4O2/c1-25-21(29)12-28-10-13-2-3-15(23)7-18(13)19(11-28)22(30)27-20-9-26-8-14-6-16(24)4-5-17(14)20/h2-9,19H,10-12H2,1H3,(H,25,29)(H,27,30)/p+1/t19-/m1/s1/fC22H21ClFN4O2/h25,27-28H/q+1", "fixed_inchikey": "HSFVRLOBMRHDCQ-IVTFTSJFNA-O"}

> <data_format>
sdf

$$$$
