LIG(A-306)
  -OEChem-06042511383D

 34 36  0     0  0  0  0  0  0999 V2000
    9.3363    1.0100   21.1041 O   0  0  0  0  0  0  0  0  0  0  0  0
    8.8483   -0.0441   21.5159 C   0  0  0  0  0  0  0  0  0  0  0  0
    9.5178   -0.8688   22.5987 C   0  0  0  0  0  0  0  0  0  0  0  0
   10.9814   -0.5325   22.7683 C   0  0  0  0  0  0  0  0  0  0  0  0
   11.3884    0.4562   23.6602 C   0  0  0  0  0  0  0  0  0  0  0  0
   12.7261    0.8182   23.7620 C   0  0  0  0  0  0  0  0  0  0  0  0
   13.6809    0.1942   22.9738 C   0  0  0  0  0  0  0  0  0  0  0  0
   11.9441   -1.1765   21.9980 C   0  0  0  0  0  0  0  0  0  0  0  0
   13.2579   -0.7917   22.1179 C   0  0  0  0  0  0  0  0  0  0  0  0
   14.1797   -1.4045   21.3247 F   0  0  0  0  0  0  0  0  0  0  0  0
    7.6893   -0.5585   21.0454 N   0  0  0  0  0  0  0  0  0  0  0  0
    6.9032   -0.0567   19.9889 C   0  0  0  0  0  0  0  0  0  0  0  0
    5.7527    0.7309   20.3059 C   0  0  0  0  0  0  0  0  0  0  0  0
    5.3203    1.0011   21.6303 C   0  0  0  0  0  0  0  0  0  0  0  0
    4.2369    1.8011   21.8674 C   0  0  0  0  0  0  0  0  0  0  0  0
    3.5269    2.3597   20.8142 C   0  0  0  0  0  0  0  0  0  0  0  0
    3.9013    2.1274   19.5210 C   0  0  0  0  0  0  0  0  0  0  0  0
    5.0238    1.3137   19.2308 C   0  0  0  0  0  0  0  0  0  0  0  0
    5.4902    1.0774   17.9116 C   0  0  0  0  0  0  0  0  0  0  0  0
    6.5618    0.3518   17.6179 N   0  0  0  0  0  0  0  0  0  0  0  0
    7.2378   -0.1957   18.6402 C   0  0  0  0  0  0  0  0  0  0  0  0
    9.0014   -0.6831   23.5521 H   0  0  0  0  0  0  0  0  0  0  0  0
    9.4297   -1.9332   22.3353 H   0  0  0  0  0  0  0  0  0  0  0  0
   10.6546    0.9485   24.2812 H   0  0  0  0  0  0  0  0  0  0  0  0
   13.0234    1.5887   24.4579 H   0  0  0  0  0  0  0  0  0  0  0  0
   14.7222    0.4745   23.0314 H   0  0  0  0  0  0  0  0  0  0  0  0
   11.6637   -1.9663   21.3168 H   0  0  0  0  0  0  0  0  0  0  0  0
    7.3534   -1.3854   21.4965 H   0  0  0  0  0  0  0  0  0  0  0  0
    5.8548    0.5686   22.4632 H   0  0  0  0  0  0  0  0  0  0  0  0
    3.9309    1.9999   22.8839 H   0  0  0  0  0  0  0  0  0  0  0  0
    2.6698    2.9842   21.0188 H   0  0  0  0  0  0  0  0  0  0  0  0
    3.3365    2.5682   18.7128 H   0  0  0  0  0  0  0  0  0  0  0  0
    4.9376    1.5162   17.0940 H   0  0  0  0  0  0  0  0  0  0  0  0
    8.1077   -0.7895   18.4012 H   0  0  0  0  0  0  0  0  0  0  0  0
  1  2  2  0  0  0  0
  2  3  1  0  0  0  0
  2 11  1  0  0  0  0
  3  4  1  0  0  0  0
  3 22  1  0  0  0  0
  3 23  1  0  0  0  0
  4  5  2  0  0  0  0
  4  8  1  0  0  0  0
  5  6  1  0  0  0  0
  5 24  1  0  0  0  0
  6  7  2  0  0  0  0
  6 25  1  0  0  0  0
  7  9  1  0  0  0  0
  7 26  1  0  0  0  0
  8  9  2  0  0  0  0
  8 27  1  0  0  0  0
  9 10  1  0  0  0  0
 11 12  1  0  0  0  0
 11 28  1  0  0  0  0
 12 13  2  0  0  0  0
 12 21  1  0  0  0  0
 13 14  1  0  0  0  0
 13 18  1  0  0  0  0
 14 15  2  0  0  0  0
 14 29  1  0  0  0  0
 15 16  1  0  0  0  0
 15 30  1  0  0  0  0
 16 17  2  0  0  0  0
 16 31  1  0  0  0  0
 17 18  1  0  0  0  0
 17 32  1  0  0  0  0
 18 19  2  0  0  0  0
 19 20  1  0  0  0  0
 19 33  1  0  0  0  0
 20 21  2  0  0  0  0
 21 34  1  0  0  0  0
M  END
> <compound_name>
RAL-THA-2d450e86-10

> <provenance>
{"isomeric_smiles": "c1ccc2c(c1)cncc2NC(=O)Cc3cccc(c3)F", "inchi": "InChI=1S/C17H13FN2O/c18-14-6-3-4-12(8-14)9-17(21)20-16-11-19-10-13-5-1-2-7-15(13)16/h1-8,10-11H,9H2,(H,20,21)", "inchi_key": "IMZAGSRTOVZPED-UHFFFAOYSA-N", "fixed_inchi": "InChI=1/C17H13FN2O/c18-14-6-3-4-12(8-14)9-17(21)20-16-11-19-10-13-5-1-2-7-15(13)16/h1-8,10-11H,9H2,(H,20,21)/f/h20H", "fixed_inchikey": "IMZAGSRTOVZPED-UYBDAZJANA-N"}

> <data_format>
sdf

$$$$
