LIG(A-307)
  -OEChem-06042511393D

 57 60  0     0  0  0  0  0  0999 V2000
   13.6460    7.9641   23.3015 O   0  0  0  0  0  0  0  0  0  0  0  0
   12.7651    7.4438   24.2990 S   0  0  0  0  0  0  0  0  0  0  0  0
   11.4331    7.9540   24.3756 O   0  0  0  0  0  0  0  0  0  0  0  0
   13.5205    7.6223   25.8998 C   0  0  0  0  0  0  0  0  0  0  0  0
   12.5677    8.2051   26.9168 C   0  0  0  0  0  0  0  0  0  0  0  0
   12.6479    5.8323   24.0459 N   0  0  0  0  0  0  0  0  0  0  0  0
   13.7205    5.0927   23.3541 C   0  0  0  0  0  0  0  0  0  0  0  0
   13.1130    3.8643   22.6640 C   0  0  0  0  0  0  0  0  0  0  0  0
   12.3715    3.0319   23.6228 N   0  0  0  0  0  0  0  0  0  0  0  0
   11.3420    3.7852   24.3547 C   0  0  0  0  0  0  0  0  0  0  0  0
   11.9464    5.0056   25.0488 C   0  0  0  0  0  0  0  0  0  0  0  0
   12.1278    1.6751   23.2770 C   0  0  0  0  0  0  0  0  0  0  0  0
   13.1842    0.8420   22.8868 C   0  0  0  0  0  0  0  0  0  0  0  0
   12.9057   -0.4363   22.4434 C   0  0  0  0  0  0  0  0  0  0  0  0
   14.1828   -1.3772   21.7236 Cl  0  0  0  0  0  0  0  0  0  0  0  0
   11.6227   -0.9357   22.4210 C   0  0  0  0  0  0  0  0  0  0  0  0
   10.5653   -0.1256   22.8071 C   0  0  0  0  0  0  0  0  0  0  0  0
   10.8208    1.1687   23.2536 C   0  0  0  0  0  0  0  0  0  0  0  0
    9.1424   -0.6008   22.6148 C   0  0  0  0  0  0  0  0  0  0  0  0
    8.5036    0.0874   21.4243 C   0  0  0  0  0  0  0  0  0  0  0  0
    8.9666    1.1258   20.9564 O   0  0  0  0  0  0  0  0  0  0  0  0
    7.3954   -0.5150   20.9393 N   0  0  0  0  0  0  0  0  0  0  0  0
    6.5932   -0.0731   19.8685 C   0  0  0  0  0  0  0  0  0  0  0  0
    5.4759    0.7706   20.1538 C   0  0  0  0  0  0  0  0  0  0  0  0
    4.9894    1.0230   21.4621 C   0  0  0  0  0  0  0  0  0  0  0  0
    3.9291    1.8560   21.6704 C   0  0  0  0  0  0  0  0  0  0  0  0
    3.2972    2.4756   20.6025 C   0  0  0  0  0  0  0  0  0  0  0  0
    3.7277    2.2642   19.3254 C   0  0  0  0  0  0  0  0  0  0  0  0
    4.8250    1.4074   19.0650 C   0  0  0  0  0  0  0  0  0  0  0  0
    5.3195    1.1569   17.7647 C   0  0  0  0  0  0  0  0  0  0  0  0
    6.3389    0.3553   17.4957 N   0  0  0  0  0  0  0  0  0  0  0  0
    6.9408   -0.2441   18.5296 C   0  0  0  0  0  0  0  0  0  0  0  0
   13.8497    6.6325   26.2489 H   0  0  0  0  0  0  0  0  0  0  0  0
   14.3919    8.2874   25.8085 H   0  0  0  0  0  0  0  0  0  0  0  0
   13.0774    8.2964   27.8874 H   0  0  0  0  0  0  0  0  0  0  0  0
   12.2368    9.1991   26.5816 H   0  0  0  0  0  0  0  0  0  0  0  0
   11.6946    7.5442   27.0220 H   0  0  0  0  0  0  0  0  0  0  0  0
   14.1917    5.7429   22.6024 H   0  0  0  0  0  0  0  0  0  0  0  0
   14.4764    4.7693   24.0848 H   0  0  0  0  0  0  0  0  0  0  0  0
   12.4263    4.1995   21.8728 H   0  0  0  0  0  0  0  0  0  0  0  0
   13.9214    3.2658   22.2185 H   0  0  0  0  0  0  0  0  0  0  0  0
   10.5696    4.1199   23.6466 H   0  0  0  0  0  0  0  0  0  0  0  0
   10.8864    3.1298   25.1115 H   0  0  0  0  0  0  0  0  0  0  0  0
   11.1463    5.5963   25.5187 H   0  0  0  0  0  0  0  0  0  0  0  0
   12.6595    4.6761   25.8188 H   0  0  0  0  0  0  0  0  0  0  0  0
   14.2040    1.1948   22.9320 H   0  0  0  0  0  0  0  0  0  0  0  0
   11.4409   -1.9522   22.1046 H   0  0  0  0  0  0  0  0  0  0  0  0
   10.0021    1.7898   23.5857 H   0  0  0  0  0  0  0  0  0  0  0  0
    9.1445   -1.6877   22.4452 H   0  0  0  0  0  0  0  0  0  0  0  0
    8.5599   -0.3720   23.5194 H   0  0  0  0  0  0  0  0  0  0  0  0
    7.1152   -1.3639   21.3875 H   0  0  0  0  0  0  0  0  0  0  0  0
    5.4661    0.5482   22.3070 H   0  0  0  0  0  0  0  0  0  0  0  0
    3.5785    2.0346   22.6762 H   0  0  0  0  0  0  0  0  0  0  0  0
    2.4578    3.1307   20.7834 H   0  0  0  0  0  0  0  0  0  0  0  0
    3.2266    2.7553   18.5044 H   0  0  0  0  0  0  0  0  0  0  0  0
    4.8342    1.6516   16.9363 H   0  0  0  0  0  0  0  0  0  0  0  0
    7.7600   -0.9126   18.3094 H   0  0  0  0  0  0  0  0  0  0  0  0
  1  2  2  0  0  0  0
  2  3  2  0  0  0  0
  2  4  1  0  0  0  0
  2  6  1  0  0  0  0
  4  5  1  0  0  0  0
  4 33  1  0  0  0  0
  4 34  1  0  0  0  0
  5 35  1  0  0  0  0
  5 36  1  0  0  0  0
  5 37  1  0  0  0  0
  6  7  1  0  0  0  0
  6 11  1  0  0  0  0
  7  8  1  0  0  0  0
  7 38  1  0  0  0  0
  7 39  1  0  0  0  0
  8  9  1  0  0  0  0
  8 40  1  0  0  0  0
  8 41  1  0  0  0  0
  9 10  1  0  0  0  0
  9 12  1  0  0  0  0
 10 11  1  0  0  0  0
 10 42  1  0  0  0  0
 10 43  1  0  0  0  0
 11 44  1  0  0  0  0
 11 45  1  0  0  0  0
 12 13  2  0  0  0  0
 12 18  1  0  0  0  0
 13 14  1  0  0  0  0
 13 46  1  0  0  0  0
 14 15  1  0  0  0  0
 14 16  2  0  0  0  0
 16 17  1  0  0  0  0
 16 47  1  0  0  0  0
 17 18  2  0  0  0  0
 17 19  1  0  0  0  0
 18 48  1  0  0  0  0
 19 20  1  0  0  0  0
 19 49  1  0  0  0  0
 19 50  1  0  0  0  0
 20 21  2  0  0  0  0
 20 22  1  0  0  0  0
 22 23  1  0  0  0  0
 22 51  1  0  0  0  0
 23 24  2  0  0  0  0
 23 32  1  0  0  0  0
 24 25  1  0  0  0  0
 24 29  1  0  0  0  0
 25 26  2  0  0  0  0
 25 52  1  0  0  0  0
 26 27  1  0  0  0  0
 26 53  1  0  0  0  0
 27 28  2  0  0  0  0
 27 54  1  0  0  0  0
 28 29  1  0  0  0  0
 28 55  1  0  0  0  0
 29 30  2  0  0  0  0
 30 31  1  0  0  0  0
 30 56  1  0  0  0  0
 31 32  2  0  0  0  0
 32 57  1  0  0  0  0
M  END
> <compound_name>
LON-WEI-9739a092-9 

> <provenance>
{"isomeric_smiles": "CCS(=O)(=O)N1CCN(CC1)c2cc(cc(c2)Cl)CC(=O)Nc3cncc4c3cccc4", "inchi": "InChI=1S/C23H25ClN4O3S/c1-2-32(30,31)28-9-7-27(8-10-28)20-12-17(11-19(24)14-20)13-23(29)26-22-16-25-15-18-5-3-4-6-21(18)22/h3-6,11-12,14-16H,2,7-10,13H2,1H3,(H,26,29)", "inchi_key": "FPNVOOOMGSKXIQ-UHFFFAOYSA-N", "fixed_inchi": "InChI=1/C23H25ClN4O3S/c1-2-32(30,31)28-9-7-27(8-10-28)20-12-17(11-19(24)14-20)13-23(29)26-22-16-25-15-18-5-3-4-6-21(18)22/h3-6,11-12,14-16H,2,7-10,13H2,1H3,(H,26,29)/f/h26H", "fixed_inchikey": "FPNVOOOMGSKXIQ-HXTKINSTNA-N"}

> <data_format>
sdf

$$$$
