LIG(A-305)
  -OEChem-06042511363D

 44 46  0     0  0  0  0  0  0999 V2000
    6.5167    0.0700   21.0530 N   0  0  0  0  0  0  0  0  0  0  0  0
    7.9368   -0.7791   22.5939 N   0  0  0  0  0  0  0  0  0  0  0  0
   13.9579   -2.0658   24.8822 C   0  0  0  0  0  0  0  0  0  0  0  0
    6.0496    0.3381   19.7541 C   0  0  0  0  0  0  0  0  0  0  0  0
    8.0734    0.5389   25.8169 O   0  0  0  0  0  0  0  0  0  0  0  0
   11.5148   -1.8145   23.5575 C   0  0  0  0  0  0  0  0  0  0  0  0
    4.8867    1.0852   19.6262 C   0  0  0  0  0  0  0  0  0  0  0  0
    9.0879   -0.8973   23.4987 C   0  0  0  0  0  0  0  0  0  0  0  0
    8.5013    1.2618   24.6498 C   0  0  0  0  0  0  0  0  0  0  0  0
    6.8365    0.1620   18.6190 C   0  0  0  0  0  0  0  0  0  0  0  0
    5.4445    1.4541   17.3512 C   0  0  0  0  0  0  0  0  0  0  0  0
   12.9419   -2.9587   25.1353 C   0  0  0  0  0  0  0  0  0  0  0  0
   12.5549   -0.9297   23.3023 C   0  0  0  0  0  0  0  0  0  0  0  0
    9.5751    0.5117   23.8787 C   0  0  0  0  0  0  0  0  0  0  0  0
   11.7258   -2.8346   24.4784 C   0  0  0  0  0  0  0  0  0  0  0  0
   13.7650   -1.0508   23.9662 C   0  0  0  0  0  0  0  0  0  0  0  0
    8.5990   -1.6112   24.7688 C   0  0  0  0  0  0  0  0  0  0  0  0
    7.8158   -0.0521   21.4649 C   0  0  0  0  0  0  0  0  0  0  0  0
    6.5494    0.7030   17.4330 N   0  0  0  0  0  0  0  0  0  0  0  0
    8.7638    0.5028   20.9008 O   0  0  0  0  0  0  0  0  0  0  0  0
   10.2087   -1.7064   22.8076 C   0  0  0  0  0  0  0  0  0  0  0  0
    4.5876    1.6672   18.4093 C   0  0  0  0  0  0  0  0  0  0  0  0
    7.5602   -0.7651   25.4809 C   0  0  0  0  0  0  0  0  0  0  0  0
    5.8174   -0.0448   21.7586 H   0  0  0  0  0  0  0  0  0  0  0  0
    7.1308   -1.3121   22.8511 H   0  0  0  0  0  0  0  0  0  0  0  0
   14.9024   -2.1586   25.3978 H   0  0  0  0  0  0  0  0  0  0  0  0
    4.2228    1.2102   20.4689 H   0  0  0  0  0  0  0  0  0  0  0  0
    7.6344    1.4182   23.9910 H   0  0  0  0  0  0  0  0  0  0  0  0
    8.9041    2.2363   24.9633 H   0  0  0  0  0  0  0  0  0  0  0  0
    7.7262   -0.4445   18.7025 H   0  0  0  0  0  0  0  0  0  0  0  0
    5.2118    1.9184   16.4043 H   0  0  0  0  0  0  0  0  0  0  0  0
   13.0912   -3.7576   25.8466 H   0  0  0  0  0  0  0  0  0  0  0  0
   12.4188   -0.1393   22.5792 H   0  0  0  0  0  0  0  0  0  0  0  0
    9.8175    1.0693   22.9621 H   0  0  0  0  0  0  0  0  0  0  0  0
   10.4757    0.4258   24.5046 H   0  0  0  0  0  0  0  0  0  0  0  0
   10.9335   -3.5389   24.6851 H   0  0  0  0  0  0  0  0  0  0  0  0
   14.5606   -0.3484   23.7664 H   0  0  0  0  0  0  0  0  0  0  0  0
    8.1525   -2.5780   24.4928 H   0  0  0  0  0  0  0  0  0  0  0  0
    9.4526   -1.7803   25.4416 H   0  0  0  0  0  0  0  0  0  0  0  0
    9.8321   -2.7265   22.6415 H   0  0  0  0  0  0  0  0  0  0  0  0
   10.4172   -1.2300   21.8383 H   0  0  0  0  0  0  0  0  0  0  0  0
    3.7029    2.2750   18.2901 H   0  0  0  0  0  0  0  0  0  0  0  0
    6.6863   -0.6457   24.8236 H   0  0  0  0  0  0  0  0  0  0  0  0
    7.2561   -1.2774   26.4056 H   0  0  0  0  0  0  0  0  0  0  0  0
  1  4  1  0  0  0  0
  1 18  1  0  0  0  0
  1 24  1  0  0  0  0
  2  8  1  0  0  0  0
  2 18  1  0  0  0  0
  2 25  1  0  0  0  0
  3 12  2  0  0  0  0
  3 16  1  0  0  0  0
  3 26  1  0  0  0  0
  4  7  2  0  0  0  0
  4 10  1  0  0  0  0
  5  9  1  0  0  0  0
  5 23  1  0  0  0  0
  6 13  1  0  0  0  0
  6 15  2  0  0  0  0
  6 21  1  0  0  0  0
  7 22  1  0  0  0  0
  7 27  1  0  0  0  0
  8 14  1  0  0  0  0
  8 17  1  0  0  0  0
  8 21  1  0  0  0  0
  9 14  1  0  0  0  0
  9 28  1  0  0  0  0
  9 29  1  0  0  0  0
 10 19  2  0  0  0  0
 10 30  1  0  0  0  0
 11 19  1  0  0  0  0
 11 22  2  0  0  0  0
 11 31  1  0  0  0  0
 12 15  1  0  0  0  0
 12 32  1  0  0  0  0
 13 16  2  0  0  0  0
 13 33  1  0  0  0  0
 14 34  1  0  0  0  0
 14 35  1  0  0  0  0
 15 36  1  0  0  0  0
 16 37  1  0  0  0  0
 17 23  1  0  0  0  0
 17 38  1  0  0  0  0
 17 39  1  0  0  0  0
 18 20  2  0  0  0  0
 21 40  1  0  0  0  0
 21 41  1  0  0  0  0
 22 42  1  0  0  0  0
 23 43  1  0  0  0  0
 23 44  1  0  0  0  0
M  END
> <compound_name>
NAU-LAT-445f63e5-6

> <provenance>
{"isomeric_smiles": "c1ccc(cc1)CC2(CCOCC2)NC(=O)Nc3cccnc3", "inchi": "InChI=1S/C18H21N3O2/c22-17(20-16-7-4-10-19-14-16)21-18(8-11-23-12-9-18)13-15-5-2-1-3-6-15/h1-7,10,14H,8-9,11-13H2,(H2,20,21,22)", "inchi_key": "QJWPFRCAJGJSOH-UHFFFAOYSA-N", "fixed_inchi": "InChI=1/C18H21N3O2/c22-17(20-16-7-4-10-19-14-16)21-18(8-11-23-12-9-18)13-15-5-2-1-3-6-15/h1-7,10,14H,8-9,11-13H2,(H2,20,21,22)/f/h20-21H", "fixed_inchikey": "QJWPFRCAJGJSOH-BDGWVKIONA-N"}

> <data_format>
sdf

$$$$
