LIG(A-305)
  -OEChem-06042511303D

 34 36  0     0  0  0  0  0  0999 V2000
    8.9163    0.7520   21.0261 O   0  0  0  0  0  0  0  0  0  0  0  0
    8.3875   -0.3250   21.3071 C   0  0  0  0  0  0  0  0  0  0  0  0
    8.8805   -1.1909   22.4512 C   0  0  0  0  0  0  0  0  0  0  0  0
   10.3214   -0.8947   22.7913 C   0  0  0  0  0  0  0  0  0  0  0  0
   10.6552    0.0714   23.7353 C   0  0  0  0  0  0  0  0  0  0  0  0
   11.9771    0.4596   23.9154 C   0  0  0  0  0  0  0  0  0  0  0  0
   12.9833   -0.1202   23.1536 C   0  0  0  0  0  0  0  0  0  0  0  0
   11.3356   -1.5055   22.0655 C   0  0  0  0  0  0  0  0  0  0  0  0
   12.6395   -1.1003   22.2396 C   0  0  0  0  0  0  0  0  0  0  0  0
   13.8837   -1.8492   21.2747 Cl  0  0  0  0  0  0  0  0  0  0  0  0
    7.2816   -0.7873   20.6970 N   0  0  0  0  0  0  0  0  0  0  0  0
    6.5486   -0.1444   19.6819 C   0  0  0  0  0  0  0  0  0  0  0  0
    5.4325    0.6734   20.0377 C   0  0  0  0  0  0  0  0  0  0  0  0
    4.9493    0.8234   21.3657 C   0  0  0  0  0  0  0  0  0  0  0  0
    3.8471    1.5922   21.6315 C   0  0  0  0  0  0  0  0  0  0  0  0
    3.1891    2.2641   20.6094 C   0  0  0  0  0  0  0  0  0  0  0  0
    3.6353    2.1751   19.3195 C   0  0  0  0  0  0  0  0  0  0  0  0
    4.7655    1.3763   19.0006 C   0  0  0  0  0  0  0  0  0  0  0  0
    5.2756    1.2433   17.6877 C   0  0  0  0  0  0  0  0  0  0  0  0
    6.3228    0.4895   17.3648 N   0  0  0  0  0  0  0  0  0  0  0  0
    6.9278   -0.1864   18.3469 C   0  0  0  0  0  0  0  0  0  0  0  0
    8.2579   -0.9997   23.3376 H   0  0  0  0  0  0  0  0  0  0  0  0
    8.7921   -2.2487   22.1622 H   0  0  0  0  0  0  0  0  0  0  0  0
    9.8788    0.5242   24.3342 H   0  0  0  0  0  0  0  0  0  0  0  0
   12.2226    1.2134   24.6489 H   0  0  0  0  0  0  0  0  0  0  0  0
   14.0117    0.1873   23.2721 H   0  0  0  0  0  0  0  0  0  0  0  0
   11.1021   -2.2955   21.3670 H   0  0  0  0  0  0  0  0  0  0  0  0
    6.9452   -1.6804   20.9956 H   0  0  0  0  0  0  0  0  0  0  0  0
    5.4583    0.3241   22.1769 H   0  0  0  0  0  0  0  0  0  0  0  0
    3.4863    1.6768   22.6460 H   0  0  0  0  0  0  0  0  0  0  0  0
    2.3182    2.8615   20.8350 H   0  0  0  0  0  0  0  0  0  0  0  0
    3.1241    2.7166   18.5372 H   0  0  0  0  0  0  0  0  0  0  0  0
    4.7830    1.7891   16.8966 H   0  0  0  0  0  0  0  0  0  0  0  0
    7.7703   -0.8086   18.0835 H   0  0  0  0  0  0  0  0  0  0  0  0
  1  2  2  0  0  0  0
  2  3  1  0  0  0  0
  2 11  1  0  0  0  0
  3  4  1  0  0  0  0
  3 22  1  0  0  0  0
  3 23  1  0  0  0  0
  4  5  2  0  0  0  0
  4  8  1  0  0  0  0
  5  6  1  0  0  0  0
  5 24  1  0  0  0  0
  6  7  2  0  0  0  0
  6 25  1  0  0  0  0
  7  9  1  0  0  0  0
  7 26  1  0  0  0  0
  8  9  2  0  0  0  0
  8 27  1  0  0  0  0
  9 10  1  0  0  0  0
 11 12  1  0  0  0  0
 11 28  1  0  0  0  0
 12 13  2  0  0  0  0
 12 21  1  0  0  0  0
 13 14  1  0  0  0  0
 13 18  1  0  0  0  0
 14 15  2  0  0  0  0
 14 29  1  0  0  0  0
 15 16  1  0  0  0  0
 15 30  1  0  0  0  0
 16 17  2  0  0  0  0
 16 31  1  0  0  0  0
 17 18  1  0  0  0  0
 17 32  1  0  0  0  0
 18 19  2  0  0  0  0
 19 20  1  0  0  0  0
 19 33  1  0  0  0  0
 20 21  2  0  0  0  0
 21 34  1  0  0  0  0
M  END
> <compound_name>
ADA-UCB-6c2cb422-1

> <provenance>
{"isomeric_smiles": "c1ccc2c(c1)cncc2NC(=O)Cc3cccc(c3)Cl", "inchi": "InChI=1S/C17H13ClN2O/c18-14-6-3-4-12(8-14)9-17(21)20-16-11-19-10-13-5-1-2-7-15(13)16/h1-8,10-11H,9H2,(H,20,21)", "inchi_key": "VFGOVUIYBMUVAD-UHFFFAOYSA-N", "fixed_inchi": "InChI=1/C17H13ClN2O/c18-14-6-3-4-12(8-14)9-17(21)20-16-11-19-10-13-5-1-2-7-15(13)16/h1-8,10-11H,9H2,(H,20,21)/f/h20H", "fixed_inchikey": "VFGOVUIYBMUVAD-UYBDAZJANA-N"}

> <data_format>
sdf

$$$$
