LIG(A-306)
  -OEChem-06042511393D

 51 54  0     1  0  0  0  0  0999 V2000
   13.9291   -1.6108   21.3304 Cl  0  0  0  0  0  0  0  0  0  0  0  0
   12.7974   -0.7791   22.3575 C   0  0  0  0  0  0  0  0  0  0  0  0
   11.4520   -1.0804   22.2602 C   0  0  0  0  0  0  0  0  0  0  0  0
   13.2635    0.1636   23.2427 C   0  0  0  0  0  0  0  0  0  0  0  0
   12.3673    0.7950   24.0826 C   0  0  0  0  0  0  0  0  0  0  0  0
   11.0041    0.5068   24.0283 C   0  0  0  0  0  0  0  0  0  0  0  0
   10.0902    1.1394   25.0503 C   0  0  0  0  0  0  0  0  0  0  0  0
    8.6944    1.0697   24.6048 N   0  0  2  0  0  0  0  0  0  0  0  0
    7.5921    2.0470   25.2257 S   0  0  0  0  0  0  0  0  0  0  0  0
    6.3388    1.7531   24.6223 O   0  0  0  0  0  0  0  0  0  0  0  0
    7.7456    2.0464   26.6395 O   0  0  0  0  0  0  0  0  0  0  0  0
    8.1249    3.4421   24.6543 N   0  0  0  0  0  0  0  0  0  0  0  0
    7.6168    3.9040   23.3577 C   0  0  0  0  0  0  0  0  0  0  0  0
    8.4362    4.5059   25.6166 C   0  0  0  0  0  0  0  0  0  0  0  0
   10.5359   -0.4230   23.0822 C   0  0  0  0  0  0  0  0  0  0  0  0
    9.0474   -0.6803   22.9181 C   0  0  1  0  0  0  0  0  0  0  0  0
    8.2749   -0.2765   24.1760 C   0  0  0  0  0  0  0  0  0  0  0  0
    8.5157    0.0827   21.7042 C   0  0  0  0  0  0  0  0  0  0  0  0
    9.0386    1.1260   21.3052 O   0  0  0  0  0  0  0  0  0  0  0  0
    7.4164   -0.4703   21.1297 N   0  0  0  0  0  0  0  0  0  0  0  0
    6.6887    0.0070   20.0145 C   0  0  0  0  0  0  0  0  0  0  0  0
    5.5376    0.8279   20.2407 C   0  0  0  0  0  0  0  0  0  0  0  0
    5.0080    1.1065   21.5273 C   0  0  0  0  0  0  0  0  0  0  0  0
    3.9167    1.9133   21.6774 C   0  0  0  0  0  0  0  0  0  0  0  0
    3.3051    2.4945   20.5708 C   0  0  0  0  0  0  0  0  0  0  0  0
    3.7737    2.2509   19.3113 C   0  0  0  0  0  0  0  0  0  0  0  0
    4.8929    1.4060   19.1082 C   0  0  0  0  0  0  0  0  0  0  0  0
    5.4064    1.0964   17.8256 C   0  0  0  0  0  0  0  0  0  0  0  0
    6.4556    0.3125   17.6146 N   0  0  0  0  0  0  0  0  0  0  0  0
    7.0712   -0.2027   18.6880 C   0  0  0  0  0  0  0  0  0  0  0  0
   11.1115   -1.8209   21.5516 H   0  0  0  0  0  0  0  0  0  0  0  0
   14.3150    0.4069   23.2808 H   0  0  0  0  0  0  0  0  0  0  0  0
   12.7282    1.5240   24.7931 H   0  0  0  0  0  0  0  0  0  0  0  0
   10.1920    0.6054   26.0066 H   0  0  0  0  0  0  0  0  0  0  0  0
   10.3744    2.1933   25.1868 H   0  0  0  0  0  0  0  0  0  0  0  0
    8.0763    4.8715   23.1069 H   0  0  0  0  0  0  0  0  0  0  0  0
    7.8687    3.1664   22.5815 H   0  0  0  0  0  0  0  0  0  0  0  0
    6.5244    4.0202   23.4124 H   0  0  0  0  0  0  0  0  0  0  0  0
    8.7885    5.3975   25.0772 H   0  0  0  0  0  0  0  0  0  0  0  0
    7.5317    4.7580   26.1898 H   0  0  0  0  0  0  0  0  0  0  0  0
    9.2216    4.1596   26.3045 H   0  0  0  0  0  0  0  0  0  0  0  0
    8.8949   -1.7561   22.7469 H   0  0  0  0  0  0  0  0  0  0  0  0
    8.4825   -0.9979   24.9801 H   0  0  0  0  0  0  0  0  0  0  0  0
    7.1968   -0.2714   23.9573 H   0  0  0  0  0  0  0  0  0  0  0  0
    7.0812   -1.3160   21.5448 H   0  0  0  0  0  0  0  0  0  0  0  0
    5.4747    0.6744   22.4001 H   0  0  0  0  0  0  0  0  0  0  0  0
    3.5241    2.1024   22.6656 H   0  0  0  0  0  0  0  0  0  0  0  0
    2.4529    3.1435   20.7090 H   0  0  0  0  0  0  0  0  0  0  0  0
    3.2866    2.7067   18.4619 H   0  0  0  0  0  0  0  0  0  0  0  0
    4.9134    1.5249   16.9656 H   0  0  0  0  0  0  0  0  0  0  0  0
    7.9323   -0.8304   18.5129 H   0  0  0  0  0  0  0  0  0  0  0  0
  1  2  1  0  0  0  0
  2  3  2  0  0  0  0
  2  4  1  0  0  0  0
  3 15  1  0  0  0  0
  3 31  1  0  0  0  0
  4  5  2  0  0  0  0
  4 32  1  0  0  0  0
  5  6  1  0  0  0  0
  5 33  1  0  0  0  0
  6  7  1  0  0  0  0
  6 15  2  0  0  0  0
  7  8  1  0  0  0  0
  7 34  1  0  0  0  0
  7 35  1  0  0  0  0
  8  9  1  0  0  0  0
  8 17  1  0  0  0  0
  9 10  2  0  0  0  0
  9 11  2  0  0  0  0
  9 12  1  0  0  0  0
 12 13  1  0  0  0  0
 12 14  1  0  0  0  0
 13 36  1  0  0  0  0
 13 37  1  0  0  0  0
 13 38  1  0  0  0  0
 14 39  1  0  0  0  0
 14 40  1  0  0  0  0
 14 41  1  0  0  0  0
 15 16  1  0  0  0  0
 16 17  1  0  0  0  0
 16 18  1  0  0  0  0
 16 42  1  0  0  0  0
 17 43  1  0  0  0  0
 17 44  1  0  0  0  0
 18 19  2  0  0  0  0
 18 20  1  0  0  0  0
 20 21  1  0  0  0  0
 20 45  1  0  0  0  0
 21 22  2  0  0  0  0
 21 30  1  0  0  0  0
 22 23  1  0  0  0  0
 22 27  1  0  0  0  0
 23 24  2  0  0  0  0
 23 46  1  0  0  0  0
 24 25  1  0  0  0  0
 24 47  1  0  0  0  0
 25 26  2  0  0  0  0
 25 48  1  0  0  0  0
 26 27  1  0  0  0  0
 26 49  1  0  0  0  0
 27 28  2  0  0  0  0
 28 29  1  0  0  0  0
 28 50  1  0  0  0  0
 29 30  2  0  0  0  0
 30 51  1  0  0  0  0
M  END
> <compound_name>
MAT-POS-4223bc15-2

> <provenance>
{"isomeric_smiles": "CN(C)S(=O)(=O)[N@]1Cc2ccc(cc2[C@@H](C1)C(=O)Nc3cncc4c3cccc4)Cl", "inchi": "InChI=1S/C21H21ClN4O3S/c1-25(2)30(28,29)26-12-15-7-8-16(22)9-18(15)19(13-26)21(27)24-20-11-23-10-14-5-3-4-6-17(14)20/h3-11,19H,12-13H2,1-2H3,(H,24,27)/t19-/m1/s1", "inchi_key": "POHNQKSSAWVPGD-LJQANCHMSA-N", "fixed_inchi": "InChI=1/C21H21ClN4O3S/c1-25(2)30(28,29)26-12-15-7-8-16(22)9-18(15)19(13-26)21(27)24-20-11-23-10-14-5-3-4-6-17(14)20/h3-11,19H,12-13H2,1-2H3,(H,24,27)/t19-/m1/s1/f/h24H", "fixed_inchikey": "POHNQKSSAWVPGD-KITPJTELNA-N"}

> <data_format>
sdf

$$$$
