LIG(A-306)
  -OEChem-06042511413D

 41 43  0     1  0  0  0  0  0999 V2000
   14.5800   -1.3618   20.7497 Cl  0  0  0  0  0  0  0  0  0  0  0  0
   13.5562   -0.6108   21.9454 C   0  0  0  0  0  0  0  0  0  0  0  0
   14.0559    0.4255   22.7052 C   0  0  0  0  0  0  0  0  0  0  0  0
   13.2257    1.0590   23.6139 C   0  0  0  0  0  0  0  0  0  0  0  0
   12.2453   -1.0277   22.0614 C   0  0  0  0  0  0  0  0  0  0  0  0
   11.3821   -0.3712   22.9391 C   0  0  0  0  0  0  0  0  0  0  0  0
   11.9038    0.6511   23.7389 C   0  0  0  0  0  0  0  0  0  0  0  0
   11.1948    1.2288   24.7666 O   0  0  0  0  0  0  0  0  0  0  0  0
    9.7527    1.1636   24.6611 C   0  0  0  0  0  0  0  0  0  0  0  0
    9.2704   -0.2240   24.3109 C   0  0  0  0  0  0  0  0  0  0  0  0
    9.8991   -0.6872   22.9840 C   0  0  1  0  0  0  0  0  0  0  0  0
    9.1850    0.0019   21.8196 C   0  0  0  0  0  0  0  0  0  0  0  0
    9.5126    1.1212   21.4184 O   0  0  0  0  0  0  0  0  0  0  0  0
    8.1266   -0.6860   21.3237 N   0  0  0  0  0  0  0  0  0  0  0  0
    7.2096   -0.2206   20.3388 C   0  0  0  0  0  0  0  0  0  0  0  0
    7.4693   -0.3539   18.9758 C   0  0  0  0  0  0  0  0  0  0  0  0
    6.6734    0.1455   18.0197 N   0  0  0  0  0  0  0  0  0  0  0  0
    5.5717    0.7971   18.4067 C   0  0  0  0  0  0  0  0  0  0  0  0
    6.0410    0.4430   20.7488 C   0  0  0  0  0  0  0  0  0  0  0  0
    5.6794    0.5635   22.2120 C   0  0  0  0  0  0  0  0  0  0  0  0
    5.2070    0.9703   19.7488 C   0  0  0  0  0  0  0  0  0  0  0  0
    4.0914    1.6879   20.1166 N   0  0  0  0  0  0  0  0  0  0  0  0
    3.2214    2.3553   19.1763 C   0  0  0  0  0  0  0  0  0  0  0  0
   15.0831    0.7393   22.5927 H   0  0  0  0  0  0  0  0  0  0  0  0
   13.6042    1.8666   24.2229 H   0  0  0  0  0  0  0  0  0  0  0  0
   11.8885   -1.8605   21.4736 H   0  0  0  0  0  0  0  0  0  0  0  0
    9.3129    1.4591   25.6250 H   0  0  0  0  0  0  0  0  0  0  0  0
    9.4226    1.8620   23.8779 H   0  0  0  0  0  0  0  0  0  0  0  0
    9.5575   -0.9212   25.1118 H   0  0  0  0  0  0  0  0  0  0  0  0
    8.1751   -0.2130   24.2095 H   0  0  0  0  0  0  0  0  0  0  0  0
    9.7624   -1.7746   22.8902 H   0  0  0  0  0  0  0  0  0  0  0  0
    7.9759   -1.6067   21.6837 H   0  0  0  0  0  0  0  0  0  0  0  0
    8.3585   -0.8876   18.6741 H   0  0  0  0  0  0  0  0  0  0  0  0
    4.9288    1.2120   17.6445 H   0  0  0  0  0  0  0  0  0  0  0  0
    6.4499    0.0699   22.8224 H   0  0  0  0  0  0  0  0  0  0  0  0
    5.6183    1.6265   22.4881 H   0  0  0  0  0  0  0  0  0  0  0  0
    4.7066    0.0818   22.3900 H   0  0  0  0  0  0  0  0  0  0  0  0
    3.6220    1.3284   20.9232 H   0  0  0  0  0  0  0  0  0  0  0  0
    2.4068    2.8551   19.7208 H   0  0  0  0  0  0  0  0  0  0  0  0
    3.7973    3.1030   18.6112 H   0  0  0  0  0  0  0  0  0  0  0  0
    2.7979    1.6162   18.4805 H   0  0  0  0  0  0  0  0  0  0  0  0
  1  2  1  0  0  0  0
  2  3  2  0  0  0  0
  2  5  1  0  0  0  0
  3  4  1  0  0  0  0
  3 24  1  0  0  0  0
  4  7  2  0  0  0  0
  4 25  1  0  0  0  0
  5  6  2  0  0  0  0
  5 26  1  0  0  0  0
  6  7  1  0  0  0  0
  6 11  1  0  0  0  0
  7  8  1  0  0  0  0
  8  9  1  0  0  0  0
  9 10  1  0  0  0  0
  9 27  1  0  0  0  0
  9 28  1  0  0  0  0
 10 11  1  0  0  0  0
 10 29  1  0  0  0  0
 10 30  1  0  0  0  0
 11 12  1  0  0  0  0
 11 31  1  0  0  0  0
 12 13  2  0  0  0  0
 12 14  1  0  0  0  0
 14 15  1  0  0  0  0
 14 32  1  0  0  0  0
 15 16  2  0  0  0  0
 15 19  1  0  0  0  0
 16 17  1  0  0  0  0
 16 33  1  0  0  0  0
 17 18  2  0  0  0  0
 18 21  1  0  0  0  0
 18 34  1  0  0  0  0
 19 20  1  0  0  0  0
 19 21  2  0  0  0  0
 20 35  1  0  0  0  0
 20 36  1  0  0  0  0
 20 37  1  0  0  0  0
 21 22  1  0  0  0  0
 22 23  1  0  0  0  0
 22 38  1  0  0  0  0
 23 39  1  0  0  0  0
 23 40  1  0  0  0  0
 23 41  1  0  0  0  0
M  END
> <compound_name>
MAT-POS-afb6844f-1

> <provenance>
{"isomeric_smiles": "Cc1c(cncc1NC(=O)[C@@H]2CCOc3c2cc(cc3)Cl)NC", "inchi": "InChI=1S/C17H18ClN3O2/c1-10-14(19-2)8-20-9-15(10)21-17(22)12-5-6-23-16-4-3-11(18)7-13(12)16/h3-4,7-9,12,19H,5-6H2,1-2H3,(H,21,22)/t12-/m1/s1", "inchi_key": "BKFTUQOQWCYOPO-GFCCVEGCSA-N", "fixed_inchi": "InChI=1/C17H18ClN3O2/c1-10-14(19-2)8-20-9-15(10)21-17(22)12-5-6-23-16-4-3-11(18)7-13(12)16/h3-4,7-9,12,19H,5-6H2,1-2H3,(H,21,22)/t12-/m1/s1/f/h21H", "fixed_inchikey": "BKFTUQOQWCYOPO-OTPOHHRKNA-N"}

> <data_format>
sdf

$$$$
