LIG(A-305)
  -OEChem-06042511333D

 30 31  0     0  0  0  0  0  0999 V2000
   11.0907    0.3547   23.6760 C   0  0  0  0  0  0  0  0  0  0  0  0
    6.5843    0.5860   17.3913 N   0  0  0  0  0  0  0  0  0  0  0  0
   11.4875   -1.1643   21.9019 C   0  0  0  0  0  0  0  0  0  0  0  0
   12.3957    0.6126   23.8389 N   0  0  0  0  0  0  0  0  0  0  0  0
    5.5795    0.8190   20.0074 C   0  0  0  0  0  0  0  0  0  0  0  0
   12.8336   -0.9213   22.0668 C   0  0  0  0  0  0  0  0  0  0  0  0
    5.0616    1.0120   21.4095 C   0  0  0  0  0  0  0  0  0  0  0  0
   10.5796   -0.5083   22.7220 C   0  0  0  0  0  0  0  0  0  0  0  0
    4.9454    1.4261   18.9285 C   0  0  0  0  0  0  0  0  0  0  0  0
    8.5745   -0.0041   21.3152 C   0  0  0  0  0  0  0  0  0  0  0  0
    7.4455   -0.5261   20.8012 N   0  0  0  0  0  0  0  0  0  0  0  0
    9.1405    0.9738   20.8422 O   0  0  0  0  0  0  0  0  0  0  0  0
    6.7384    0.0670   19.7353 C   0  0  0  0  0  0  0  0  0  0  0  0
    9.0916   -0.7052   22.5561 C   0  0  0  0  0  0  0  0  0  0  0  0
    7.1953   -0.0170   18.4183 C   0  0  0  0  0  0  0  0  0  0  0  0
   13.2597   -0.0084   23.0278 C   0  0  0  0  0  0  0  0  0  0  0  0
    5.4713    1.2821   17.6584 C   0  0  0  0  0  0  0  0  0  0  0  0
   13.9835   -1.8483   21.1447 Cl  0  0  0  0  0  0  0  0  0  0  0  0
   10.3921    0.8527   24.3320 H   0  0  0  0  0  0  0  0  0  0  0  0
   11.1439   -1.8547   21.1459 H   0  0  0  0  0  0  0  0  0  0  0  0
    4.1755    1.6633   21.3871 H   0  0  0  0  0  0  0  0  0  0  0  0
    4.7884    0.0359   21.8369 H   0  0  0  0  0  0  0  0  0  0  0  0
    5.8431    1.4773   22.0281 H   0  0  0  0  0  0  0  0  0  0  0  0
    4.0476    2.0064   19.0822 H   0  0  0  0  0  0  0  0  0  0  0  0
    7.0913   -1.3748   21.1940 H   0  0  0  0  0  0  0  0  0  0  0  0
    8.5763   -0.2974   23.4383 H   0  0  0  0  0  0  0  0  0  0  0  0
    8.8804   -1.7815   22.4731 H   0  0  0  0  0  0  0  0  0  0  0  0
    8.0846   -0.5964   18.2187 H   0  0  0  0  0  0  0  0  0  0  0  0
   14.3145    0.2039   23.1209 H   0  0  0  0  0  0  0  0  0  0  0  0
    4.9567    1.7568   16.8362 H   0  0  0  0  0  0  0  0  0  0  0  0
  1  4  2  0  0  0  0
  1  8  1  0  0  0  0
  1 19  1  0  0  0  0
  2 15  1  0  0  0  0
  2 17  2  0  0  0  0
  3  6  1  0  0  0  0
  3  8  2  0  0  0  0
  3 20  1  0  0  0  0
  4 16  1  0  0  0  0
  5  7  1  0  0  0  0
  5  9  2  0  0  0  0
  5 13  1  0  0  0  0
  6 16  2  0  0  0  0
  6 18  1  0  0  0  0
  7 21  1  0  0  0  0
  7 22  1  0  0  0  0
  7 23  1  0  0  0  0
  8 14  1  0  0  0  0
  9 17  1  0  0  0  0
  9 24  1  0  0  0  0
 10 11  1  0  0  0  0
 10 12  2  0  0  0  0
 10 14  1  0  0  0  0
 11 13  1  0  0  0  0
 11 25  1  0  0  0  0
 13 15  2  0  0  0  0
 14 26  1  0  0  0  0
 14 27  1  0  0  0  0
 15 28  1  0  0  0  0
 16 29  1  0  0  0  0
 17 30  1  0  0  0  0
M  END
> <compound_name>
TRY-UNI-2eddb1ff-2

> <provenance>
{"isomeric_smiles": "Cc1ccncc1NC(=O)Cc2cc(cnc2)Cl", "inchi": "InChI=1S/C13H12ClN3O/c1-9-2-3-15-8-12(9)17-13(18)5-10-4-11(14)7-16-6-10/h2-4,6-8H,5H2,1H3,(H,17,18)", "inchi_key": "OCRRKPZGCOGESB-UHFFFAOYSA-N", "fixed_inchi": "InChI=1/C13H12ClN3O/c1-9-2-3-15-8-12(9)17-13(18)5-10-4-11(14)7-16-6-10/h2-4,6-8H,5H2,1H3,(H,17,18)/f/h17H", "fixed_inchikey": "OCRRKPZGCOGESB-HCKMINDGNA-N"}

> <data_format>
sdf

$$$$
