LIG(A-305)
  -OEChem-06042511373D

 35 37  0     0  0  0  0  0  0999 V2000
    9.0307    0.8414   21.0628 O   0  0  0  0  0  0  0  0  0  0  0  0
    8.5347   -0.2326   21.3807 C   0  0  0  0  0  0  0  0  0  0  0  0
    8.9997   -0.9907   22.6057 C   0  0  0  0  0  0  0  0  0  0  0  0
   10.4747   -0.7607   22.8278 C   0  0  0  0  0  0  0  0  0  0  0  0
   10.9187    0.1433   23.7828 C   0  0  0  0  0  0  0  0  0  0  0  0
   12.2657    0.4363   23.9098 C   0  0  0  0  0  0  0  0  0  0  0  0
   13.1937   -0.1767   23.0838 C   0  0  0  0  0  0  0  0  0  0  0  0
   11.4087   -1.3947   22.0168 C   0  0  0  0  0  0  0  0  0  0  0  0
   12.7477   -1.0937   22.1548 C   0  0  0  0  0  0  0  0  0  0  0  0
   13.8967   -1.8787   21.1108 Cl  0  0  0  0  0  0  0  0  0  0  0  0
    7.5297   -0.8116   20.6987 N   0  0  0  0  0  0  0  0  0  0  0  0
    6.7647   -0.1476   19.7127 C   0  0  0  0  0  0  0  0  0  0  0  0
    5.6207    0.5764   20.0817 C   0  0  0  0  0  0  0  0  0  0  0  0
    5.1647    0.6904   21.5287 C   0  0  0  0  0  0  0  0  0  0  0  0
    4.0467    1.6294   21.9047 C   0  0  0  0  0  0  0  0  0  0  0  0
    5.4407    1.9574   22.2977 C   0  0  0  0  0  0  0  0  0  0  0  0
    4.9247    1.2494   19.0827 C   0  0  0  0  0  0  0  0  0  0  0  0
    5.3898    1.1985   17.7827 C   0  0  0  0  0  0  0  0  0  0  0  0
    6.4838    0.5205   17.4147 N   0  0  0  0  0  0  0  0  0  0  0  0
    7.1438   -0.1426   18.3697 C   0  0  0  0  0  0  0  0  0  0  0  0
    8.4401   -0.6396   23.4852 H   0  0  0  0  0  0  0  0  0  0  0  0
    8.8168   -2.0655   22.4599 H   0  0  0  0  0  0  0  0  0  0  0  0
   10.2044    0.6241   24.4349 H   0  0  0  0  0  0  0  0  0  0  0  0
   12.5942    1.1452   24.6554 H   0  0  0  0  0  0  0  0  0  0  0  0
   14.2446    0.0585   23.1656 H   0  0  0  0  0  0  0  0  0  0  0  0
   11.0878   -2.1188   21.2826 H   0  0  0  0  0  0  0  0  0  0  0  0
    7.3114   -1.7663   20.9009 H   0  0  0  0  0  0  0  0  0  0  0  0
    5.2189   -0.2400   22.1129 H   0  0  0  0  0  0  0  0  0  0  0  0
    3.5423    2.2213   21.1267 H   0  0  0  0  0  0  0  0  0  0  0  0
    3.3158    1.3330   22.6715 H   0  0  0  0  0  0  0  0  0  0  0  0
    5.9663    2.7916   21.8102 H   0  0  0  0  0  0  0  0  0  0  0  0
    5.7398    1.9033   23.3549 H   0  0  0  0  0  0  0  0  0  0  0  0
    4.0303    1.8059   19.3209 H   0  0  0  0  0  0  0  0  0  0  0  0
    4.8411    1.7345   17.0224 H   0  0  0  0  0  0  0  0  0  0  0  0
    8.0201   -0.7064   18.0857 H   0  0  0  0  0  0  0  0  0  0  0  0
  1  2  2  0  0  0  0
  2  3  1  0  0  0  0
  2 11  1  0  0  0  0
  3  4  1  0  0  0  0
  3 21  1  0  0  0  0
  3 22  1  0  0  0  0
  4  5  2  0  0  0  0
  4  8  1  0  0  0  0
  5  6  1  0  0  0  0
  5 23  1  0  0  0  0
  6  7  2  0  0  0  0
  6 24  1  0  0  0  0
  7  9  1  0  0  0  0
  7 25  1  0  0  0  0
  8  9  2  0  0  0  0
  8 26  1  0  0  0  0
  9 10  1  0  0  0  0
 11 12  1  0  0  0  0
 11 27  1  0  0  0  0
 12 13  2  0  0  0  0
 12 20  1  0  0  0  0
 13 14  1  0  0  0  0
 13 17  1  0  0  0  0
 14 15  1  0  0  0  0
 14 16  1  0  0  0  0
 14 28  1  0  0  0  0
 15 16  1  0  0  0  0
 15 29  1  0  0  0  0
 15 30  1  0  0  0  0
 16 31  1  0  0  0  0
 16 32  1  0  0  0  0
 17 18  2  0  0  0  0
 17 33  1  0  0  0  0
 18 19  1  0  0  0  0
 18 34  1  0  0  0  0
 19 20  2  0  0  0  0
 20 35  1  0  0  0  0
M  END
> <compound_name>
ALP-POS-95b75b4d-5

> <provenance>
{"isomeric_smiles": "c1cc(cc(c1)Cl)CC(=O)Nc2cnccc2C3CC3", "inchi": "InChI=1S/C16H15ClN2O/c17-13-3-1-2-11(8-13)9-16(20)19-15-10-18-7-6-14(15)12-4-5-12/h1-3,6-8,10,12H,4-5,9H2,(H,19,20)", "inchi_key": "TVYREULMZIPGLM-UHFFFAOYSA-N", "fixed_inchi": "InChI=1/C16H15ClN2O/c17-13-3-1-2-11(8-13)9-16(20)19-15-10-18-7-6-14(15)12-4-5-12/h1-3,6-8,10,12H,4-5,9H2,(H,19,20)/f/h19H", "fixed_inchikey": "TVYREULMZIPGLM-LILDFLRNNA-N"}

> <data_format>
sdf

$$$$
