LIG(A-307)
  -OEChem-06042511383D

 44 47  0     1  0  0  0  0  0999 V2000
   14.1399   -1.5107   21.0487 Cl  0  0  0  0  0  0  0  0  0  0  0  0
   12.9865   -0.7998   22.1474 C   0  0  0  0  0  0  0  0  0  0  0  0
   11.6588   -1.1617   22.0489 C   0  0  0  0  0  0  0  0  0  0  0  0
   13.4126    0.1408   23.0601 C   0  0  0  0  0  0  0  0  0  0  0  0
   12.4879    0.7305   23.9062 C   0  0  0  0  0  0  0  0  0  0  0  0
   11.1372    0.3916   23.8177 C   0  0  0  0  0  0  0  0  0  0  0  0
   10.1715    1.0033   24.6709 N   0  0  0  0  0  0  0  0  0  0  0  0
   10.5833    1.7954   25.6928 C   0  0  0  0  0  0  0  0  0  0  0  0
   10.9037    2.9707   25.4460 O   0  0  0  0  0  0  0  0  0  0  0  0
   10.6589    1.2365   26.9076 N   0  0  0  0  0  0  0  0  0  0  0  0
   10.7091   -0.5518   22.8680 C   0  0  0  0  0  0  0  0  0  0  0  0
    9.2415   -0.8679   22.6687 C   0  0  1  0  0  0  0  0  0  0  0  0
    8.4332   -0.5826   23.9373 C   0  0  0  0  0  0  0  0  0  0  0  0
    8.7301    0.8204   24.4312 C   0  0  0  0  0  0  0  0  0  0  0  0
    8.6919   -0.0609   21.4918 C   0  0  0  0  0  0  0  0  0  0  0  0
    9.2089    0.9979   21.1240 O   0  0  0  0  0  0  0  0  0  0  0  0
    7.5997   -0.6028   20.9033 N   0  0  0  0  0  0  0  0  0  0  0  0
    6.8426   -0.0670   19.8440 C   0  0  0  0  0  0  0  0  0  0  0  0
    5.7263    0.7656   20.1613 C   0  0  0  0  0  0  0  0  0  0  0  0
    5.2690    1.0030   21.4836 C   0  0  0  0  0  0  0  0  0  0  0  0
    4.2027    1.8250   21.7229 C   0  0  0  0  0  0  0  0  0  0  0  0
    3.5448    2.4535   20.6741 C   0  0  0  0  0  0  0  0  0  0  0  0
    3.9412    2.2501   19.3840 C   0  0  0  0  0  0  0  0  0  0  0  0
    5.0324    1.3964   19.0896 C   0  0  0  0  0  0  0  0  0  0  0  0
    5.4756    1.1270   17.7711 C   0  0  0  0  0  0  0  0  0  0  0  0
    6.5020    0.3414   17.4741 N   0  0  0  0  0  0  0  0  0  0  0  0
    7.1610   -0.2300   18.4961 C   0  0  0  0  0  0  0  0  0  0  0  0
   11.3552   -1.9161   21.3382 H   0  0  0  0  0  0  0  0  0  0  0  0
   14.4557    0.4151   23.1150 H   0  0  0  0  0  0  0  0  0  0  0  0
   12.8137    1.4555   24.6373 H   0  0  0  0  0  0  0  0  0  0  0  0
   10.9897    1.7720   27.6846 H   0  0  0  0  0  0  0  0  0  0  0  0
   10.3846    0.2836   27.0375 H   0  0  0  0  0  0  0  0  0  0  0  0
    9.1439   -1.9373   22.4303 H   0  0  0  0  0  0  0  0  0  0  0  0
    7.3598   -0.6716   23.7141 H   0  0  0  0  0  0  0  0  0  0  0  0
    8.7073   -1.3095   24.7160 H   0  0  0  0  0  0  0  0  0  0  0  0
    8.3967    1.5458   23.6745 H   0  0  0  0  0  0  0  0  0  0  0  0
    8.1847    0.9936   25.3707 H   0  0  0  0  0  0  0  0  0  0  0  0
    7.2957   -1.4853   21.2622 H   0  0  0  0  0  0  0  0  0  0  0  0
    5.7707    0.5274   22.3134 H   0  0  0  0  0  0  0  0  0  0  0  0
    3.8691    1.9868   22.7372 H   0  0  0  0  0  0  0  0  0  0  0  0
    2.7119    3.1093   20.8810 H   0  0  0  0  0  0  0  0  0  0  0  0
    3.4175    2.7451   18.5795 H   0  0  0  0  0  0  0  0  0  0  0  0
    4.9429    1.5919   16.9547 H   0  0  0  0  0  0  0  0  0  0  0  0
    8.0016   -0.8639   18.2554 H   0  0  0  0  0  0  0  0  0  0  0  0
  1  2  1  0  0  0  0
  2  3  2  0  0  0  0
  2  4  1  0  0  0  0
  3 11  1  0  0  0  0
  3 28  1  0  0  0  0
  4  5  2  0  0  0  0
  4 29  1  0  0  0  0
  5  6  1  0  0  0  0
  5 30  1  0  0  0  0
  6  7  1  0  0  0  0
  6 11  2  0  0  0  0
  7  8  1  0  0  0  0
  7 14  1  0  0  0  0
  8  9  2  0  0  0  0
  8 10  1  0  0  0  0
 10 31  1  0  0  0  0
 10 32  1  0  0  0  0
 11 12  1  0  0  0  0
 12 13  1  0  0  0  0
 12 15  1  0  0  0  0
 12 33  1  0  0  0  0
 13 14  1  0  0  0  0
 13 34  1  0  0  0  0
 13 35  1  0  0  0  0
 14 36  1  0  0  0  0
 14 37  1  0  0  0  0
 15 16  2  0  0  0  0
 15 17  1  0  0  0  0
 17 18  1  0  0  0  0
 17 38  1  0  0  0  0
 18 19  2  0  0  0  0
 18 27  1  0  0  0  0
 19 20  1  0  0  0  0
 19 24  1  0  0  0  0
 20 21  2  0  0  0  0
 20 39  1  0  0  0  0
 21 22  1  0  0  0  0
 21 40  1  0  0  0  0
 22 23  2  0  0  0  0
 22 41  1  0  0  0  0
 23 24  1  0  0  0  0
 23 42  1  0  0  0  0
 24 25  2  0  0  0  0
 25 26  1  0  0  0  0
 25 43  1  0  0  0  0
 26 27  2  0  0  0  0
 27 44  1  0  0  0  0
M  END
> <compound_name>
RAL-THA-4aa06b95-1

> <provenance>
{"isomeric_smiles": "c1ccc2c(c1)cncc2NC(=O)[C@@H]3CCN(c4c3cc(cc4)Cl)C(=O)N", "inchi": "InChI=1S/C20H17ClN4O2/c21-13-5-6-18-16(9-13)15(7-8-25(18)20(22)27)19(26)24-17-11-23-10-12-3-1-2-4-14(12)17/h1-6,9-11,15H,7-8H2,(H2,22,27)(H,24,26)/t15-/m1/s1", "inchi_key": "RKWNGNYSSGAJBH-OAHLLOKOSA-N", "fixed_inchi": "InChI=1/C20H17ClN4O2/c21-13-5-6-18-16(9-13)15(7-8-25(18)20(22)27)19(26)24-17-11-23-10-12-3-1-2-4-14(12)17/h1-6,9-11,15H,7-8H2,(H2,22,27)(H,24,26)/t15-/m1/s1/f/h24H,22H2", "fixed_inchikey": "RKWNGNYSSGAJBH-FATYPRQHNA-N"}

> <data_format>
sdf

$$$$
