LIG(A-306)
  -OEChem-06042511393D

 49 52  0     1  0  0  0  0  0999 V2000
    9.2798    1.2558   20.9205 O   0  0  0  0  0  0  0  0  0  0  0  0
    8.8451    0.2105   21.3834 C   0  0  0  0  0  0  0  0  0  0  0  0
    9.4790   -0.4125   22.6509 C   0  0  1  0  0  0  0  0  0  0  0  0
   10.9843   -0.1571   22.7230 C   0  0  0  0  0  0  0  0  0  0  0  0
   11.8656   -0.9423   21.9813 C   0  0  0  0  0  0  0  0  0  0  0  0
   13.2077   -0.6190   21.9616 C   0  0  0  0  0  0  0  0  0  0  0  0
   14.2614   -1.4747   20.8656 Cl  0  0  0  0  0  0  0  0  0  0  0  0
   13.7145    0.4335   22.6946 C   0  0  0  0  0  0  0  0  0  0  0  0
   12.8542    1.2077   23.4513 C   0  0  0  0  0  0  0  0  0  0  0  0
   11.5011    0.9054   23.4650 C   0  0  0  0  0  0  0  0  0  0  0  0
   10.7691    1.5677   24.4176 O   0  0  0  0  0  0  0  0  0  0  0  0
    9.5615    0.9008   24.8384 C   0  0  0  0  0  0  0  0  0  0  0  0
    8.6923    0.4130   23.7005 C   0  0  0  0  0  0  0  0  0  0  0  0
    9.2434   -1.9433   22.7419 C   0  0  0  0  0  0  0  0  0  0  0  0
    7.9555   -2.3359   23.4326 C   0  0  0  0  0  0  0  0  0  0  0  0
    6.8586   -2.1679   22.9004 O   0  0  0  0  0  0  0  0  0  0  0  0
    8.0893   -2.9077   24.6240 N   0  0  0  0  0  0  0  0  0  0  0  0
    6.9524   -3.4094   25.3755 C   0  0  0  0  0  0  0  0  0  0  0  0
    7.7369   -0.3865   20.8770 N   0  0  0  0  0  0  0  0  0  0  0  0
    6.9053    0.0839   19.8379 C   0  0  0  0  0  0  0  0  0  0  0  0
    5.7203    0.8108   20.1793 C   0  0  0  0  0  0  0  0  0  0  0  0
    5.2467    0.9714   21.5089 C   0  0  0  0  0  0  0  0  0  0  0  0
    4.1155    1.6942   21.7702 C   0  0  0  0  0  0  0  0  0  0  0  0
    3.4050    2.2945   20.7368 C   0  0  0  0  0  0  0  0  0  0  0  0
    3.8126    2.1570   19.4402 C   0  0  0  0  0  0  0  0  0  0  0  0
    4.9727    1.4041   19.1240 C   0  0  0  0  0  0  0  0  0  0  0  0
    5.4313    1.2065   17.7994 C   0  0  0  0  0  0  0  0  0  0  0  0
    6.5104    0.5076   17.4812 N   0  0  0  0  0  0  0  0  0  0  0  0
    7.2169   -0.0327   18.4825 C   0  0  0  0  0  0  0  0  0  0  0  0
   11.5020   -1.7952   21.4274 H   0  0  0  0  0  0  0  0  0  0  0  0
   14.7723    0.6508   22.6778 H   0  0  0  0  0  0  0  0  0  0  0  0
   13.2327    2.0400   24.0262 H   0  0  0  0  0  0  0  0  0  0  0  0
    9.8432    0.0333   25.4533 H   0  0  0  0  0  0  0  0  0  0  0  0
    8.9725    1.6044   25.4450 H   0  0  0  0  0  0  0  0  0  0  0  0
    7.8925   -0.2180   24.1154 H   0  0  0  0  0  0  0  0  0  0  0  0
    8.2480    1.2856   23.1992 H   0  0  0  0  0  0  0  0  0  0  0  0
    9.2240   -2.3500   21.7201 H   0  0  0  0  0  0  0  0  0  0  0  0
   10.0818   -2.3883   23.2979 H   0  0  0  0  0  0  0  0  0  0  0  0
    9.0045   -2.9959   25.0171 H   0  0  0  0  0  0  0  0  0  0  0  0
    7.3011   -3.8380   26.3266 H   0  0  0  0  0  0  0  0  0  0  0  0
    6.2547   -2.5838   25.5795 H   0  0  0  0  0  0  0  0  0  0  0  0
    6.4396   -4.1864   24.7895 H   0  0  0  0  0  0  0  0  0  0  0  0
    7.4794   -1.2612   21.2875 H   0  0  0  0  0  0  0  0  0  0  0  0
    5.7877    0.5161   22.3253 H   0  0  0  0  0  0  0  0  0  0  0  0
    3.7710    1.7998   22.7883 H   0  0  0  0  0  0  0  0  0  0  0  0
    2.5224    2.8751   20.9613 H   0  0  0  0  0  0  0  0  0  0  0  0
    3.2467    2.6256   18.6487 H   0  0  0  0  0  0  0  0  0  0  0  0
    4.8647    1.6545   16.9965 H   0  0  0  0  0  0  0  0  0  0  0  0
    8.0959   -0.6029   18.2208 H   0  0  0  0  0  0  0  0  0  0  0  0
  1  2  2  0  0  0  0
  2  3  1  0  0  0  0
  2 19  1  0  0  0  0
  3  4  1  0  0  0  0
  3 13  1  0  0  0  0
  3 14  1  0  0  0  0
  4  5  2  0  0  0  0
  4 10  1  0  0  0  0
  5  6  1  0  0  0  0
  5 30  1  0  0  0  0
  6  7  1  0  0  0  0
  6  8  2  0  0  0  0
  8  9  1  0  0  0  0
  8 31  1  0  0  0  0
  9 10  2  0  0  0  0
  9 32  1  0  0  0  0
 10 11  1  0  0  0  0
 11 12  1  0  0  0  0
 12 13  1  0  0  0  0
 12 33  1  0  0  0  0
 12 34  1  0  0  0  0
 13 35  1  0  0  0  0
 13 36  1  0  0  0  0
 14 15  1  0  0  0  0
 14 37  1  0  0  0  0
 14 38  1  0  0  0  0
 15 16  2  0  0  0  0
 15 17  1  0  0  0  0
 17 18  1  0  0  0  0
 17 39  1  0  0  0  0
 18 40  1  0  0  0  0
 18 41  1  0  0  0  0
 18 42  1  0  0  0  0
 19 20  1  0  0  0  0
 19 43  1  0  0  0  0
 20 21  2  0  0  0  0
 20 29  1  0  0  0  0
 21 22  1  0  0  0  0
 21 26  1  0  0  0  0
 22 23  2  0  0  0  0
 22 44  1  0  0  0  0
 23 24  1  0  0  0  0
 23 45  1  0  0  0  0
 24 25  2  0  0  0  0
 24 46  1  0  0  0  0
 25 26  1  0  0  0  0
 25 47  1  0  0  0  0
 26 27  2  0  0  0  0
 27 28  1  0  0  0  0
 27 48  1  0  0  0  0
 28 29  2  0  0  0  0
 29 49  1  0  0  0  0
M  END
> <compound_name>
MAT-POS-5d65ec79-2

> <provenance>
{"isomeric_smiles": "CNC(=O)C[C@]1(CCOc2c1cc(cc2)Cl)C(=O)Nc3cncc4c3cccc4", "inchi": "InChI=1S/C22H20ClN3O3/c1-24-20(27)11-22(8-9-29-19-7-6-15(23)10-17(19)22)21(28)26-18-13-25-12-14-4-2-3-5-16(14)18/h2-7,10,12-13H,8-9,11H2,1H3,(H,24,27)(H,26,28)/t22-/m0/s1", "inchi_key": "WFJMXJRCQHLHHH-QFIPXVFZSA-N", "fixed_inchi": "InChI=1/C22H20ClN3O3/c1-24-20(27)11-22(8-9-29-19-7-6-15(23)10-17(19)22)21(28)26-18-13-25-12-14-4-2-3-5-16(14)18/h2-7,10,12-13H,8-9,11H2,1H3,(H,24,27)(H,26,28)/t22-/m0/s1/f/h24,26H", "fixed_inchikey": "WFJMXJRCQHLHHH-WGXDOEBRNA-N"}

> <data_format>
sdf

$$$$
