LIG(A-306)
  -OEChem-06042511423D

 54 57  0     1  0  0  0  0  0999 V2000
   14.0835   -1.5200   21.2831 Cl  0  0  0  0  0  0  0  0  0  0  0  0
   12.9268   -0.7343   22.3183 C   0  0  0  0  0  0  0  0  0  0  0  0
   11.5984   -1.0996   22.2360 C   0  0  0  0  0  0  0  0  0  0  0  0
   13.3508    0.2534   23.1785 C   0  0  0  0  0  0  0  0  0  0  0  0
   12.4205    0.8848   23.9854 C   0  0  0  0  0  0  0  0  0  0  0  0
   11.0662    0.5594   23.9131 C   0  0  0  0  0  0  0  0  0  0  0  0
   10.0751    1.2639   24.8141 C   0  0  0  0  0  0  0  0  0  0  0  0
    8.6893    1.1062   24.3527 N   0  3  2  0  0  0  0  0  0  0  0  0
    7.6881    1.7826   25.2067 C   0  0  1  0  0  0  0  0  0  0  0  0
    7.9358    2.0220   26.6900 C   0  0  0  0  0  0  0  0  0  0  0  0
    7.0056    2.9823   24.5346 C   0  0  0  0  0  0  0  0  0  0  0  0
    6.1350    3.6204   25.1244 O   0  0  0  0  0  0  0  0  0  0  0  0
    7.4096    3.2748   23.3016 N   0  0  0  0  0  0  0  0  0  0  0  0
    6.8409    4.3743   22.5444 C   0  0  0  0  0  0  0  0  0  0  0  0
   10.6511   -0.4363   23.0129 C   0  0  0  0  0  0  0  0  0  0  0  0
    9.1766   -0.7427   22.8418 C   0  0  1  0  0  0  0  0  0  0  0  0
    8.4050   -0.3090   24.0876 C   0  0  0  0  0  0  0  0  0  0  0  0
    8.6579    0.0133   21.6159 C   0  0  0  0  0  0  0  0  0  0  0  0
    9.1878    1.0496   21.2119 O   0  0  0  0  0  0  0  0  0  0  0  0
    7.5187   -0.4906   21.0824 N   0  0  0  0  0  0  0  0  0  0  0  0
    6.7642    0.0356   20.0131 C   0  0  0  0  0  0  0  0  0  0  0  0
    5.5851    0.7936   20.3084 C   0  0  0  0  0  0  0  0  0  0  0  0
    5.0855    0.9972   21.6220 C   0  0  0  0  0  0  0  0  0  0  0  0
    3.9853    1.7791   21.8421 C   0  0  0  0  0  0  0  0  0  0  0  0
    3.3268    2.3893   20.7836 C   0  0  0  0  0  0  0  0  0  0  0  0
    3.7655    2.2197   19.5000 C   0  0  0  0  0  0  0  0  0  0  0  0
    4.9026    1.4168   19.2259 C   0  0  0  0  0  0  0  0  0  0  0  0
    5.4182    1.2272   17.9192 C   0  0  0  0  0  0  0  0  0  0  0  0
    6.5053    0.5173   17.6441 N   0  0  0  0  0  0  0  0  0  0  0  0
    7.1488   -0.0550   18.6725 C   0  0  0  0  0  0  0  0  0  0  0  0
   11.2947   -1.8959   21.5725 H   0  0  0  0  0  0  0  0  0  0  0  0
   14.3935    0.5313   23.2229 H   0  0  0  0  0  0  0  0  0  0  0  0
   12.7485    1.6417   24.6825 H   0  0  0  0  0  0  0  0  0  0  0  0
   10.1598    0.8455   25.8279 H   0  0  0  0  0  0  0  0  0  0  0  0
   10.3197    2.3361   24.8382 H   0  0  0  0  0  0  0  0  0  0  0  0
    8.6431    1.5651   23.4654 H   0  0  0  0  0  0  0  0  0  0  0  0
    6.8708    1.0468   25.2316 H   0  0  0  0  0  0  0  0  0  0  0  0
    7.0679    2.5361   27.1289 H   0  0  0  0  0  0  0  0  0  0  0  0
    8.0855    1.0574   27.1971 H   0  0  0  0  0  0  0  0  0  0  0  0
    8.8333    2.6455   26.8158 H   0  0  0  0  0  0  0  0  0  0  0  0
    8.1282    2.7193   22.8830 H   0  0  0  0  0  0  0  0  0  0  0  0
    7.3236    4.4290   21.5575 H   0  0  0  0  0  0  0  0  0  0  0  0
    5.7608    4.2106   22.4156 H   0  0  0  0  0  0  0  0  0  0  0  0
    7.0069    5.3171   23.0863 H   0  0  0  0  0  0  0  0  0  0  0  0
    9.0413   -1.8233   22.6870 H   0  0  0  0  0  0  0  0  0  0  0  0
    8.7212   -0.9167   24.9482 H   0  0  0  0  0  0  0  0  0  0  0  0
    7.3264   -0.4440   23.9199 H   0  0  0  0  0  0  0  0  0  0  0  0
    7.1729   -1.3335   21.4946 H   0  0  0  0  0  0  0  0  0  0  0  0
    5.5814    0.5282   22.4590 H   0  0  0  0  0  0  0  0  0  0  0  0
    3.6251    1.9231   22.8500 H   0  0  0  0  0  0  0  0  0  0  0  0
    2.4597    3.0039   20.9758 H   0  0  0  0  0  0  0  0  0  0  0  0
    3.2418    2.7012   18.6874 H   0  0  0  0  0  0  0  0  0  0  0  0
    4.8936    1.6893   17.0960 H   0  0  0  0  0  0  0  0  0  0  0  0
    8.0339   -0.6312   18.4469 H   0  0  0  0  0  0  0  0  0  0  0  0
  1  2  1  0  0  0  0
  2  3  2  0  0  0  0
  2  4  1  0  0  0  0
  3 15  1  0  0  0  0
  3 31  1  0  0  0  0
  4  5  2  0  0  0  0
  4 32  1  0  0  0  0
  5  6  1  0  0  0  0
  5 33  1  0  0  0  0
  6  7  1  0  0  0  0
  6 15  2  0  0  0  0
  7  8  1  0  0  0  0
  7 34  1  0  0  0  0
  7 35  1  0  0  0  0
  8  9  1  0  0  0  0
  8 17  1  0  0  0  0
  8 36  1  0  0  0  0
  9 10  1  0  0  0  0
  9 11  1  0  0  0  0
  9 37  1  0  0  0  0
 10 38  1  0  0  0  0
 10 39  1  0  0  0  0
 10 40  1  0  0  0  0
 11 12  2  0  0  0  0
 11 13  1  0  0  0  0
 13 14  1  0  0  0  0
 13 41  1  0  0  0  0
 14 42  1  0  0  0  0
 14 43  1  0  0  0  0
 14 44  1  0  0  0  0
 15 16  1  0  0  0  0
 16 17  1  0  0  0  0
 16 18  1  0  0  0  0
 16 45  1  0  0  0  0
 17 46  1  0  0  0  0
 17 47  1  0  0  0  0
 18 19  2  0  0  0  0
 18 20  1  0  0  0  0
 20 21  1  0  0  0  0
 20 48  1  0  0  0  0
 21 22  2  0  0  0  0
 21 30  1  0  0  0  0
 22 23  1  0  0  0  0
 22 27  1  0  0  0  0
 23 24  2  0  0  0  0
 23 49  1  0  0  0  0
 24 25  1  0  0  0  0
 24 50  1  0  0  0  0
 25 26  2  0  0  0  0
 25 51  1  0  0  0  0
 26 27  1  0  0  0  0
 26 52  1  0  0  0  0
 27 28  2  0  0  0  0
 28 29  1  0  0  0  0
 28 53  1  0  0  0  0
 29 30  2  0  0  0  0
 30 54  1  0  0  0  0
M  CHG  1   8   1
M  END
> <compound_name>
MAT-POS-5cd9ea36-14

> <provenance>
{"isomeric_smiles": "C[C@@H](C(=O)NC)[N@H+]1Cc2ccc(cc2[C@@H](C1)C(=O)Nc3cncc4c3cccc4)Cl", "inchi": "InChI=1S/C23H23ClN4O2/c1-14(22(29)25-2)28-12-16-7-8-17(24)9-19(16)20(13-28)23(30)27-21-11-26-10-15-5-3-4-6-18(15)21/h3-11,14,20H,12-13H2,1-2H3,(H,25,29)(H,27,30)/p+1/t14-,20+/m0/s1", "inchi_key": "JYNPSSIRIGNSBA-VBKZILBWSA-O", "fixed_inchi": "InChI=1/C23H23ClN4O2/c1-14(22(29)25-2)28-12-16-7-8-17(24)9-19(16)20(13-28)23(30)27-21-11-26-10-15-5-3-4-6-18(15)21/h3-11,14,20H,12-13H2,1-2H3,(H,25,29)(H,27,30)/p+1/t14-,20+/m0/s1/fC23H24ClN4O2/h25,27-28H/q+1", "fixed_inchikey": "JYNPSSIRIGNSBA-KHCBDWAMNA-O"}

> <data_format>
sdf

$$$$
