LIG(A-306)
  -OEChem-06042511383D

 39 42  0     1  0  0  0  0  0999 V2000
    9.1752    1.0853   21.0688 O   0  0  0  0  0  0  0  0  0  0  0  0
    8.6593    0.0229   21.4318 C   0  0  0  0  0  0  0  0  0  0  0  0
    9.2687   -0.8462   22.5317 C   0  0  2  0  0  0  0  0  0  0  0  0
    8.5311   -0.5295   23.8406 C   0  0  0  0  0  0  0  0  0  0  0  0
    8.8838    0.8030   24.4376 C   0  0  0  0  0  0  0  0  0  0  0  0
    8.0542    1.4960   25.0153 O   0  0  0  0  0  0  0  0  0  0  0  0
   10.1658    1.2002   24.3050 N   0  0  0  0  0  0  0  0  0  0  0  0
   10.7392   -0.5568   22.7428 C   0  0  0  0  0  0  0  0  0  0  0  0
   11.1282    0.5229   23.5520 C   0  0  0  0  0  0  0  0  0  0  0  0
   12.4755    0.8703   23.6564 C   0  0  0  0  0  0  0  0  0  0  0  0
   13.4320    0.1521   22.9575 C   0  0  0  0  0  0  0  0  0  0  0  0
   11.7147   -1.2770   22.0609 C   0  0  0  0  0  0  0  0  0  0  0  0
   13.0371   -0.9025   22.1623 C   0  0  0  0  0  0  0  0  0  0  0  0
   14.2210   -1.7302   21.1921 Cl  0  0  0  0  0  0  0  0  0  0  0  0
    7.5241   -0.4711   20.8962 N   0  0  0  0  0  0  0  0  0  0  0  0
    6.7856    0.0782   19.8399 C   0  0  0  0  0  0  0  0  0  0  0  0
    5.7005    0.9491   20.1489 C   0  0  0  0  0  0  0  0  0  0  0  0
    5.2499    1.2117   21.4694 C   0  0  0  0  0  0  0  0  0  0  0  0
    4.1717    2.0215   21.6954 C   0  0  0  0  0  0  0  0  0  0  0  0
    3.4912    2.6067   20.6359 C   0  0  0  0  0  0  0  0  0  0  0  0
    3.8979    2.3971   19.3474 C   0  0  0  0  0  0  0  0  0  0  0  0
    5.0120    1.5673   19.0694 C   0  0  0  0  0  0  0  0  0  0  0  0
    5.4586    1.2827   17.7559 C   0  0  0  0  0  0  0  0  0  0  0  0
    6.4667    0.4699   17.4701 N   0  0  0  0  0  0  0  0  0  0  0  0
    7.1032   -0.1134   18.4966 C   0  0  0  0  0  0  0  0  0  0  0  0
    9.1308   -1.9083   22.2807 H   0  0  0  0  0  0  0  0  0  0  0  0
    7.4498   -0.5422   23.6392 H   0  0  0  0  0  0  0  0  0  0  0  0
    8.7769   -1.3121   24.5735 H   0  0  0  0  0  0  0  0  0  0  0  0
   10.4464    2.0357   24.7774 H   0  0  0  0  0  0  0  0  0  0  0  0
   12.7727    1.6990   24.2819 H   0  0  0  0  0  0  0  0  0  0  0  0
   14.4764    0.4157   23.0348 H   0  0  0  0  0  0  0  0  0  0  0  0
   11.4367   -2.1263   21.4544 H   0  0  0  0  0  0  0  0  0  0  0  0
    7.1729   -1.3182   21.2949 H   0  0  0  0  0  0  0  0  0  0  0  0
    5.7659    0.7657   22.3067 H   0  0  0  0  0  0  0  0  0  0  0  0
    3.8461    2.2078   22.7081 H   0  0  0  0  0  0  0  0  0  0  0  0
    2.6333    3.2329   20.8313 H   0  0  0  0  0  0  0  0  0  0  0  0
    3.3653    2.8683   18.5346 H   0  0  0  0  0  0  0  0  0  0  0  0
    4.9449    1.7585   16.9337 H   0  0  0  0  0  0  0  0  0  0  0  0
    7.9211   -0.7797   18.2654 H   0  0  0  0  0  0  0  0  0  0  0  0
  1  2  2  0  0  0  0
  2  3  1  0  0  0  0
  2 15  1  0  0  0  0
  3  4  1  0  0  0  0
  3  8  1  0  0  0  0
  3 26  1  0  0  0  0
  4  5  1  0  0  0  0
  4 27  1  0  0  0  0
  4 28  1  0  0  0  0
  5  6  2  0  0  0  0
  5  7  1  0  0  0  0
  7  9  1  0  0  0  0
  7 29  1  0  0  0  0
  8  9  1  0  0  0  0
  8 12  2  0  0  0  0
  9 10  2  0  0  0  0
 10 11  1  0  0  0  0
 10 30  1  0  0  0  0
 11 13  2  0  0  0  0
 11 31  1  0  0  0  0
 12 13  1  0  0  0  0
 12 32  1  0  0  0  0
 13 14  1  0  0  0  0
 15 16  1  0  0  0  0
 15 33  1  0  0  0  0
 16 17  2  0  0  0  0
 16 25  1  0  0  0  0
 17 18  1  0  0  0  0
 17 22  1  0  0  0  0
 18 19  2  0  0  0  0
 18 34  1  0  0  0  0
 19 20  1  0  0  0  0
 19 35  1  0  0  0  0
 20 21  2  0  0  0  0
 20 36  1  0  0  0  0
 21 22  1  0  0  0  0
 21 37  1  0  0  0  0
 22 23  2  0  0  0  0
 23 24  1  0  0  0  0
 23 38  1  0  0  0  0
 24 25  2  0  0  0  0
 25 39  1  0  0  0  0
M  END
> <compound_name>
MIC-UNK-45817b9b-1

> <provenance>
{"isomeric_smiles": "c1ccc2c(c1)cncc2NC(=O)[C@@H]3CC(=O)Nc4c3cc(cc4)Cl", "inchi": "InChI=1S/C19H14ClN3O2/c20-12-5-6-16-14(7-12)15(8-18(24)22-16)19(25)23-17-10-21-9-11-3-1-2-4-13(11)17/h1-7,9-10,15H,8H2,(H,22,24)(H,23,25)/t15-/m1/s1", "inchi_key": "WGORDSNJHZEQJN-OAHLLOKOSA-N", "fixed_inchi": "InChI=1/C19H14ClN3O2/c20-12-5-6-16-14(7-12)15(8-18(24)22-16)19(25)23-17-10-21-9-11-3-1-2-4-13(11)17/h1-7,9-10,15H,8H2,(H,22,24)(H,23,25)/t15-/m1/s1/f/h22-23H", "fixed_inchikey": "WGORDSNJHZEQJN-YZJNWDFNNA-N"}

> <data_format>
sdf

$$$$
