LIG(A-306)
  -OEChem-06042511403D

 38 41  0     1  0  0  0  0  0999 V2000
    9.2642    1.1362   20.9783 O   0  0  0  0  0  0  0  0  0  0  0  0
    8.7743    0.0311   21.1544 C   0  0  0  0  0  0  0  0  0  0  0  0
    9.4444   -1.1939   21.7522 C   0  0  1  0  0  0  0  0  0  0  0  0
   10.7615   -0.8828   22.4430 C   0  0  0  0  0  0  0  0  0  0  0  0
   10.9056    0.0761   23.4371 C   0  0  0  0  0  0  0  0  0  0  0  0
   12.1666    0.5202   23.8109 C   0  0  0  0  0  0  0  0  0  0  0  0
   13.2996    0.0173   23.1827 C   0  0  0  0  0  0  0  0  0  0  0  0
   11.8965   -1.4367   21.8679 C   0  0  0  0  0  0  0  0  0  0  0  0
   13.1385   -0.9487   22.2027 C   0  0  0  0  0  0  0  0  0  0  0  0
   14.5104   -1.4436   21.2475 Cl  0  0  0  0  0  0  0  0  0  0  0  0
    7.4973   -0.3489   20.8885 N   0  0  0  0  0  0  0  0  0  0  0  0
    7.0954   -1.5270   21.6855 C   0  0  0  0  0  0  0  0  0  0  0  0
    8.3086   -1.7730   22.5973 C   0  0  0  0  0  0  0  0  0  0  0  0
    6.6631    0.2171   19.8757 C   0  0  0  0  0  0  0  0  0  0  0  0
    5.5431    1.0400   20.1908 C   0  0  0  0  0  0  0  0  0  0  0  0
    5.1663    1.4049   21.5109 C   0  0  0  0  0  0  0  0  0  0  0  0
    4.1052    2.2358   21.7341 C   0  0  0  0  0  0  0  0  0  0  0  0
    3.3671    2.7389   20.6742 C   0  0  0  0  0  0  0  0  0  0  0  0
    3.6889    2.4169   19.3862 C   0  0  0  0  0  0  0  0  0  0  0  0
    4.7869    1.5680   19.1080 C   0  0  0  0  0  0  0  0  0  0  0  0
    5.2078    1.2501   17.7919 C   0  0  0  0  0  0  0  0  0  0  0  0
    6.2588    0.4982   17.5057 N   0  0  0  0  0  0  0  0  0  0  0  0
    6.9539   -0.0009   18.5346 C   0  0  0  0  0  0  0  0  0  0  0  0
    9.6495   -1.9007   20.9346 H   0  0  0  0  0  0  0  0  0  0  0  0
   10.0296    0.4797   23.9231 H   0  0  0  0  0  0  0  0  0  0  0  0
   12.2675    1.2588   24.5924 H   0  0  0  0  0  0  0  0  0  0  0  0
   14.2836    0.3715   23.4524 H   0  0  0  0  0  0  0  0  0  0  0  0
   11.8052   -2.2476   21.1603 H   0  0  0  0  0  0  0  0  0  0  0  0
    6.1946   -1.3118   22.2789 H   0  0  0  0  0  0  0  0  0  0  0  0
    6.9084   -2.3955   21.0369 H   0  0  0  0  0  0  0  0  0  0  0  0
    8.2072   -1.2400   23.5543 H   0  0  0  0  0  0  0  0  0  0  0  0
    8.4567   -2.8460   22.7892 H   0  0  0  0  0  0  0  0  0  0  0  0
    5.7266    1.0199   22.3501 H   0  0  0  0  0  0  0  0  0  0  0  0
    3.8390    2.5034   22.7459 H   0  0  0  0  0  0  0  0  0  0  0  0
    2.5291    3.3918   20.8687 H   0  0  0  0  0  0  0  0  0  0  0  0
    3.1001    2.8138   18.5725 H   0  0  0  0  0  0  0  0  0  0  0  0
    4.6328    1.6477   16.9686 H   0  0  0  0  0  0  0  0  0  0  0  0
    7.8075   -0.6213   18.3047 H   0  0  0  0  0  0  0  0  0  0  0  0
  1  2  2  0  0  0  0
  2  3  1  0  0  0  0
  2 11  1  0  0  0  0
  3  4  1  0  0  0  0
  3 13  1  0  0  0  0
  3 24  1  0  0  0  0
  4  5  2  0  0  0  0
  4  8  1  0  0  0  0
  5  6  1  0  0  0  0
  5 25  1  0  0  0  0
  6  7  2  0  0  0  0
  6 26  1  0  0  0  0
  7  9  1  0  0  0  0
  7 27  1  0  0  0  0
  8  9  2  0  0  0  0
  8 28  1  0  0  0  0
  9 10  1  0  0  0  0
 11 12  1  0  0  0  0
 11 14  1  0  0  0  0
 12 13  1  0  0  0  0
 12 29  1  0  0  0  0
 12 30  1  0  0  0  0
 13 31  1  0  0  0  0
 13 32  1  0  0  0  0
 14 15  2  0  0  0  0
 14 23  1  0  0  0  0
 15 16  1  0  0  0  0
 15 20  1  0  0  0  0
 16 17  2  0  0  0  0
 16 33  1  0  0  0  0
 17 18  1  0  0  0  0
 17 34  1  0  0  0  0
 18 19  2  0  0  0  0
 18 35  1  0  0  0  0
 19 20  1  0  0  0  0
 19 36  1  0  0  0  0
 20 21  2  0  0  0  0
 21 22  1  0  0  0  0
 21 37  1  0  0  0  0
 22 23  2  0  0  0  0
 23 38  1  0  0  0  0
M  END
> <compound_name>
EDG-MED-5d232de5-8

> <provenance>
{"isomeric_smiles": "c1ccc2c(c1)cncc2N3CC[C@@H](C3=O)c4cccc(c4)Cl", "inchi": "InChI=1S/C19H15ClN2O/c20-15-6-3-5-13(10-15)17-8-9-22(19(17)23)18-12-21-11-14-4-1-2-7-16(14)18/h1-7,10-12,17H,8-9H2/t17-/m1/s1", "inchi_key": "RNKBROMGPBKNFK-QGZVFWFLSA-N", "fixed_inchi": "InChI=1/C19H15ClN2O/c20-15-6-3-5-13(10-15)17-8-9-22(19(17)23)18-12-21-11-14-4-1-2-7-16(14)18/h1-7,10-12,17H,8-9H2/t17-/m1/s1", "fixed_inchikey": "RNKBROMGPBKNFK-QGZVFWFLNA-N"}

> <data_format>
sdf

$$$$
