LIG(A-306)
  -OEChem-06042511403D

 46 50  0     1  0  0  0  0  0999 V2000
    9.4254    1.4060   21.0324 O   0  0  0  0  0  0  0  0  0  0  0  0
    9.0026    0.4649   21.6874 C   0  0  0  0  0  0  0  0  0  0  0  0
    9.7009    0.0399   22.9813 C   0  0  2  0  0  0  0  0  0  0  0  0
    9.1279    0.9498   24.0954 C   0  0  0  0  0  0  0  0  0  0  0  0
    9.9588    2.1949   24.3113 C   0  0  0  0  0  0  0  0  0  0  0  0
   11.3239    1.8731   24.6051 O   0  0  0  0  0  0  0  0  0  0  0  0
   11.2288    0.1761   22.8720 C   0  0  0  0  0  0  0  0  0  0  0  0
   11.9298    1.1122   23.6400 C   0  0  0  0  0  0  0  0  0  0  0  0
   13.2938    1.3064   23.4908 C   0  0  0  0  0  0  0  0  0  0  0  0
   13.9887    0.5395   22.5726 C   0  0  0  0  0  0  0  0  0  0  0  0
   11.9478   -0.6097   21.9709 C   0  0  0  0  0  0  0  0  0  0  0  0
   13.3107   -0.4135   21.8367 C   0  0  0  0  0  0  0  0  0  0  0  0
   14.1947   -1.3854   20.6915 Cl  0  0  0  0  0  0  0  0  0  0  0  0
    7.8626   -0.2062   21.3205 N   0  0  0  0  0  0  0  0  0  0  0  0
    7.5089   -1.5563   21.7865 C   0  0  0  0  0  0  0  0  0  0  0  0
    8.7011   -2.2762   22.3803 C   0  0  0  0  0  0  0  0  0  0  0  0
    9.4021   -1.4141   23.4222 C   0  0  0  0  0  0  0  0  0  0  0  0
    7.0934    0.2257   20.1887 C   0  0  0  0  0  0  0  0  0  0  0  0
    5.9183    1.0156   20.3749 C   0  0  0  0  0  0  0  0  0  0  0  0
    5.4005    1.3855   21.6470 C   0  0  0  0  0  0  0  0  0  0  0  0
    4.2884    2.1733   21.7512 C   0  0  0  0  0  0  0  0  0  0  0  0
    3.6422    2.6433   20.6113 C   0  0  0  0  0  0  0  0  0  0  0  0
    4.0930    2.3034   19.3662 C   0  0  0  0  0  0  0  0  0  0  0  0
    5.2271    1.4705   19.2130 C   0  0  0  0  0  0  0  0  0  0  0  0
    5.7210    1.0657   17.9499 C   0  0  0  0  0  0  0  0  0  0  0  0
    6.7930    0.3068   17.7797 N   0  0  0  0  0  0  0  0  0  0  0  0
    7.4512   -0.0852   18.8786 C   0  0  0  0  0  0  0  0  0  0  0  0
    8.1077    1.2508   23.8151 H   0  0  0  0  0  0  0  0  0  0  0  0
    9.0966    0.3793   25.0354 H   0  0  0  0  0  0  0  0  0  0  0  0
    9.9251    2.8093   23.3996 H   0  0  0  0  0  0  0  0  0  0  0  0
    9.5370    2.7641   25.1528 H   0  0  0  0  0  0  0  0  0  0  0  0
   13.8083    2.0476   24.0842 H   0  0  0  0  0  0  0  0  0  0  0  0
   15.0498    0.6842   22.4326 H   0  0  0  0  0  0  0  0  0  0  0  0
   11.4452   -1.3641   21.3836 H   0  0  0  0  0  0  0  0  0  0  0  0
    6.7244   -1.4742   22.5533 H   0  0  0  0  0  0  0  0  0  0  0  0
    7.1292   -2.1391   20.9344 H   0  0  0  0  0  0  0  0  0  0  0  0
    8.3579   -3.2065   22.8564 H   0  0  0  0  0  0  0  0  0  0  0  0
    9.4121   -2.5165   21.5762 H   0  0  0  0  0  0  0  0  0  0  0  0
    8.7631   -1.3740   24.3167 H   0  0  0  0  0  0  0  0  0  0  0  0
   10.3578   -1.8961   23.6757 H   0  0  0  0  0  0  0  0  0  0  0  0
    5.8931    1.0388   22.5434 H   0  0  0  0  0  0  0  0  0  0  0  0
    3.9073    2.4338   22.7276 H   0  0  0  0  0  0  0  0  0  0  0  0
    2.7771    3.2820   20.7115 H   0  0  0  0  0  0  0  0  0  0  0  0
    3.5791    2.6738   18.4915 H   0  0  0  0  0  0  0  0  0  0  0  0
    5.1902    1.3963   17.0694 H   0  0  0  0  0  0  0  0  0  0  0  0
    8.3328   -0.6928   18.7372 H   0  0  0  0  0  0  0  0  0  0  0  0
  1  2  2  0  0  0  0
  2  3  1  0  0  0  0
  2 14  1  0  0  0  0
  3  4  1  0  0  0  0
  3  7  1  0  0  0  0
  3 17  1  0  0  0  0
  4  5  1  0  0  0  0
  4 28  1  0  0  0  0
  4 29  1  0  0  0  0
  5  6  1  0  0  0  0
  5 30  1  0  0  0  0
  5 31  1  0  0  0  0
  6  8  1  0  0  0  0
  7  8  2  0  0  0  0
  7 11  1  0  0  0  0
  8  9  1  0  0  0  0
  9 10  2  0  0  0  0
  9 32  1  0  0  0  0
 10 12  1  0  0  0  0
 10 33  1  0  0  0  0
 11 12  2  0  0  0  0
 11 34  1  0  0  0  0
 12 13  1  0  0  0  0
 14 15  1  0  0  0  0
 14 18  1  0  0  0  0
 15 16  1  0  0  0  0
 15 35  1  0  0  0  0
 15 36  1  0  0  0  0
 16 17  1  0  0  0  0
 16 37  1  0  0  0  0
 16 38  1  0  0  0  0
 17 39  1  0  0  0  0
 17 40  1  0  0  0  0
 18 19  2  0  0  0  0
 18 27  1  0  0  0  0
 19 20  1  0  0  0  0
 19 24  1  0  0  0  0
 20 21  2  0  0  0  0
 20 41  1  0  0  0  0
 21 22  1  0  0  0  0
 21 42  1  0  0  0  0
 22 23  2  0  0  0  0
 22 43  1  0  0  0  0
 23 24  1  0  0  0  0
 23 44  1  0  0  0  0
 24 25  2  0  0  0  0
 25 26  1  0  0  0  0
 25 45  1  0  0  0  0
 26 27  2  0  0  0  0
 27 46  1  0  0  0  0
M  END
> <compound_name>
ALP-POS-477dc5b7-5

> <provenance>
{"isomeric_smiles": "c1ccc2c(c1)cncc2N3CCC[C@@]4(C3=O)CCOc5c4cc(cc5)Cl", "inchi": "InChI=1S/C22H19ClN2O2/c23-16-6-7-20-18(12-16)22(9-11-27-20)8-3-10-25(21(22)26)19-14-24-13-15-4-1-2-5-17(15)19/h1-2,4-7,12-14H,3,8-11H2/t22-/m1/s1", "inchi_key": "SVWQDFXKODKDNW-JOCHJYFZSA-N", "fixed_inchi": "InChI=1/C22H19ClN2O2/c23-16-6-7-20-18(12-16)22(9-11-27-20)8-3-10-25(21(22)26)19-14-24-13-15-4-1-2-5-17(15)19/h1-2,4-7,12-14H,3,8-11H2/t22-/m1/s1", "fixed_inchikey": "SVWQDFXKODKDNW-JOCHJYFZNA-N"}

> <data_format>
sdf

$$$$
