LIG(A-305)
  -OEChem-06042511303D

 40 41  0     1  0  0  0  0  0999 V2000
    7.8244   -0.3629   21.3247 N   0  0  0  0  0  0  0  0  0  0  0  0
    5.6434    1.0225   18.0788 C   0  0  0  0  0  0  0  0  0  0  0  0
    9.3814   -0.0700   23.1667 C   0  0  1  0  0  0  0  0  0  0  0  0
    8.9234    0.2881   21.7567 C   0  0  0  0  0  0  0  0  0  0  0  0
   10.9224   -0.2541   23.2057 C   0  0  0  0  0  0  0  0  0  0  0  0
   12.9673   -1.4492   22.2896 C   0  0  0  0  0  0  0  0  0  0  0  0
   13.4723   -1.7193   23.7015 C   0  0  0  0  0  0  0  0  0  0  0  0
   12.9864   -0.6443   24.6566 C   0  0  0  0  0  0  0  0  0  0  0  0
    5.8604    0.8373   20.4588 C   0  0  0  0  0  0  0  0  0  0  0  0
    7.4374   -0.1247   18.9077 C   0  0  0  0  0  0  0  0  0  0  0  0
    7.0414    0.0903   20.2277 C   0  0  0  0  0  0  0  0  0  0  0  0
    5.1545    1.2814   19.3458 C   0  0  0  0  0  0  0  0  0  0  0  0
    5.4065    1.2162   21.8448 C   0  0  0  0  0  0  0  0  0  0  0  0
    8.9015    1.0609   24.0778 C   0  0  0  0  0  0  0  0  0  0  0  0
    6.7684    0.3404   17.8467 N   0  0  0  0  0  0  0  0  0  0  0  0
    9.4635    1.1831   21.1248 O   0  0  0  0  0  0  0  0  0  0  0  0
   11.4413   -1.3391   22.2516 C   0  0  0  0  0  0  0  0  0  0  0  0
   11.4614   -0.5132   24.6236 C   0  0  0  0  0  0  0  0  0  0  0  0
    7.5480   -1.2004   21.7961 H   0  0  0  0  0  0  0  0  0  0  0  0
    5.0857    1.3915   17.2307 H   0  0  0  0  0  0  0  0  0  0  0  0
    8.9024   -1.0109   23.4754 H   0  0  0  0  0  0  0  0  0  0  0  0
   11.3600    0.6979   22.8705 H   0  0  0  0  0  0  0  0  0  0  0  0
   13.4029   -0.5059   21.9284 H   0  0  0  0  0  0  0  0  0  0  0  0
   13.2828   -2.2737   21.6332 H   0  0  0  0  0  0  0  0  0  0  0  0
   13.0991   -2.6977   24.0382 H   0  0  0  0  0  0  0  0  0  0  0  0
   14.5723   -1.7284   23.6966 H   0  0  0  0  0  0  0  0  0  0  0  0
   13.3009   -0.9047   25.6780 H   0  0  0  0  0  0  0  0  0  0  0  0
   13.4344    0.3184   24.3693 H   0  0  0  0  0  0  0  0  0  0  0  0
    8.3349   -0.6991   18.7323 H   0  0  0  0  0  0  0  0  0  0  0  0
    4.2298    1.8253   19.4706 H   0  0  0  0  0  0  0  0  0  0  0  0
    6.1802    1.8298   22.3297 H   0  0  0  0  0  0  0  0  0  0  0  0
    4.4706    1.7906   21.7798 H   0  0  0  0  0  0  0  0  0  0  0  0
    5.2370    0.3049   22.4370 H   0  0  0  0  0  0  0  0  0  0  0  0
    9.2069    0.8526   25.1137 H   0  0  0  0  0  0  0  0  0  0  0  0
    9.3471    2.0111   23.7484 H   0  0  0  0  0  0  0  0  0  0  0  0
    7.8051    1.1329   24.0262 H   0  0  0  0  0  0  0  0  0  0  0  0
   11.1279   -1.0911   21.2267 H   0  0  0  0  0  0  0  0  0  0  0  0
   11.0075   -2.3068   22.5436 H   0  0  0  0  0  0  0  0  0  0  0  0
   11.0190   -1.4456   25.0042 H   0  0  0  0  0  0  0  0  0  0  0  0
   11.1654    0.3245   25.2721 H   0  0  0  0  0  0  0  0  0  0  0  0
  1  4  1  0  0  0  0
  1 11  1  0  0  0  0
  1 19  1  0  0  0  0
  2 12  1  0  0  0  0
  2 15  2  0  0  0  0
  2 20  1  0  0  0  0
  3  4  1  0  0  0  0
  3  5  1  0  0  0  0
  3 14  1  0  0  0  0
  3 21  1  0  0  0  0
  4 16  2  0  0  0  0
  5 17  1  0  0  0  0
  5 18  1  0  0  0  0
  5 22  1  0  0  0  0
  6  7  1  0  0  0  0
  6 17  1  0  0  0  0
  6 23  1  0  0  0  0
  6 24  1  0  0  0  0
  7  8  1  0  0  0  0
  7 25  1  0  0  0  0
  7 26  1  0  0  0  0
  8 18  1  0  0  0  0
  8 27  1  0  0  0  0
  8 28  1  0  0  0  0
  9 11  1  0  0  0  0
  9 12  2  0  0  0  0
  9 13  1  0  0  0  0
 10 11  2  0  0  0  0
 10 15  1  0  0  0  0
 10 29  1  0  0  0  0
 12 30  1  0  0  0  0
 13 31  1  0  0  0  0
 13 32  1  0  0  0  0
 13 33  1  0  0  0  0
 14 34  1  0  0  0  0
 14 35  1  0  0  0  0
 14 36  1  0  0  0  0
 17 37  1  0  0  0  0
 17 38  1  0  0  0  0
 18 39  1  0  0  0  0
 18 40  1  0  0  0  0
M  END
> <compound_name>
TRY-UNI-714a760b-16

> <provenance>
{"isomeric_smiles": "Cc1ccncc1NC(=O)[C@H](C)C2CCCCC2", "inchi": "InChI=1S/C15H22N2O/c1-11-8-9-16-10-14(11)17-15(18)12(2)13-6-4-3-5-7-13/h8-10,12-13H,3-7H2,1-2H3,(H,17,18)/t12-/m1/s1", "inchi_key": "KMBBZQXTAKMYIS-GFCCVEGCSA-N", "fixed_inchi": "InChI=1/C15H22N2O/c1-11-8-9-16-10-14(11)17-15(18)12(2)13-6-4-3-5-7-13/h8-10,12-13H,3-7H2,1-2H3,(H,17,18)/t12-/m1/s1/f/h17H", "fixed_inchikey": "KMBBZQXTAKMYIS-YRIRCGKTNA-N"}

> <data_format>
sdf

$$$$
