LIG(A-305)
  -OEChem-06042511353D

 38 39  0     1  0  0  0  0  0999 V2000
   13.9826   -1.6255   21.0682 Cl  0  0  0  0  0  0  0  0  0  0  0  0
   12.9268   -0.6784   22.0813 C   0  0  0  0  0  0  0  0  0  0  0  0
   13.4740    0.2486   22.9433 C   0  0  0  0  0  0  0  0  0  0  0  0
   12.6301    0.9427   23.7953 C   0  0  0  0  0  0  0  0  0  0  0  0
   11.2631    0.7148   23.7635 C   0  0  0  0  0  0  0  0  0  0  0  0
   11.5647   -0.9052   22.0254 C   0  0  0  0  0  0  0  0  0  0  0  0
   10.7159   -0.1961   22.8695 C   0  0  0  0  0  0  0  0  0  0  0  0
    9.2089   -0.4140   22.7997 C   0  0  2  0  0  0  0  0  0  0  0  0
    8.8368   -1.8039   23.3557 C   0  0  0  0  0  0  0  0  0  0  0  0
    8.6788    0.1381   21.4657 C   0  0  0  0  0  0  0  0  0  0  0  0
    9.1329    1.1661   20.9767 O   0  0  0  0  0  0  0  0  0  0  0  0
    7.6247   -0.5278   20.9168 N   0  0  0  0  0  0  0  0  0  0  0  0
    6.8606   -0.0587   19.8259 C   0  0  0  0  0  0  0  0  0  0  0  0
    5.6537    0.6154   20.0630 C   0  0  0  0  0  0  0  0  0  0  0  0
    5.1858    0.7285   21.3931 N   0  0  0  0  0  0  0  0  0  0  0  0
    3.9879    1.1726   21.8492 C   0  0  0  0  0  0  0  0  0  0  0  0
    3.8301    1.1386   23.3402 C   0  0  0  0  0  0  0  0  0  0  0  0
    3.0859    1.5617   21.1073 O   0  0  0  0  0  0  0  0  0  0  0  0
    4.9717    1.1775   18.9871 C   0  0  0  0  0  0  0  0  0  0  0  0
    5.5275    1.0445   17.7311 C   0  0  0  0  0  0  0  0  0  0  0  0
    6.6774    0.4044   17.4809 N   0  0  0  0  0  0  0  0  0  0  0  0
    7.3195   -0.1427   18.5159 C   0  0  0  0  0  0  0  0  0  0  0  0
   14.5386    0.4299   22.9540 H   0  0  0  0  0  0  0  0  0  0  0  0
   13.0391    1.6641   24.4872 H   0  0  0  0  0  0  0  0  0  0  0  0
   10.6163    1.2518   24.4416 H   0  0  0  0  0  0  0  0  0  0  0  0
   11.1620   -1.6280   21.3314 H   0  0  0  0  0  0  0  0  0  0  0  0
    8.8065    0.2831   23.5495 H   0  0  0  0  0  0  0  0  0  0  0  0
    7.7472   -1.9431   23.2973 H   0  0  0  0  0  0  0  0  0  0  0  0
    9.3380   -2.5825   22.7618 H   0  0  0  0  0  0  0  0  0  0  0  0
    9.1601   -1.8777   24.4046 H   0  0  0  0  0  0  0  0  0  0  0  0
    7.3744   -1.4107   21.3143 H   0  0  0  0  0  0  0  0  0  0  0  0
    5.8317    0.4391   22.0995 H   0  0  0  0  0  0  0  0  0  0  0  0
    2.8280    1.5019   23.6117 H   0  0  0  0  0  0  0  0  0  0  0  0
    3.9553    0.1062   23.6986 H   0  0  0  0  0  0  0  0  0  0  0  0
    4.5916    1.7827   23.8043 H   0  0  0  0  0  0  0  0  0  0  0  0
    4.0378    1.7007   19.1309 H   0  0  0  0  0  0  0  0  0  0  0  0
    5.0020    1.4844   16.8964 H   0  0  0  0  0  0  0  0  0  0  0  0
    8.2393   -0.6761   18.3266 H   0  0  0  0  0  0  0  0  0  0  0  0
  1  2  1  0  0  0  0
  2  3  2  0  0  0  0
  2  6  1  0  0  0  0
  3  4  1  0  0  0  0
  3 23  1  0  0  0  0
  4  5  2  0  0  0  0
  4 24  1  0  0  0  0
  5  7  1  0  0  0  0
  5 25  1  0  0  0  0
  6  7  2  0  0  0  0
  6 26  1  0  0  0  0
  7  8  1  0  0  0  0
  8  9  1  0  0  0  0
  8 10  1  0  0  0  0
  8 27  1  0  0  0  0
  9 28  1  0  0  0  0
  9 29  1  0  0  0  0
  9 30  1  0  0  0  0
 10 11  2  0  0  0  0
 10 12  1  0  0  0  0
 12 13  1  0  0  0  0
 12 31  1  0  0  0  0
 13 14  2  0  0  0  0
 13 22  1  0  0  0  0
 14 15  1  0  0  0  0
 14 19  1  0  0  0  0
 15 16  1  0  0  0  0
 15 32  1  0  0  0  0
 16 17  1  0  0  0  0
 16 18  2  0  0  0  0
 17 33  1  0  0  0  0
 17 34  1  0  0  0  0
 17 35  1  0  0  0  0
 19 20  2  0  0  0  0
 19 36  1  0  0  0  0
 20 21  1  0  0  0  0
 20 37  1  0  0  0  0
 21 22  2  0  0  0  0
 22 38  1  0  0  0  0
M  END
> <compound_name>
JAN-GHE-83b26c96-2

> <provenance>
{"isomeric_smiles": "C[C@@H](c1cccc(c1)Cl)C(=O)Nc2cnccc2NC(=O)C", "inchi": "InChI=1S/C16H16ClN3O2/c1-10(12-4-3-5-13(17)8-12)16(22)20-15-9-18-7-6-14(15)19-11(2)21/h3-10H,1-2H3,(H,20,22)(H,18,19,21)/t10-/m0/s1", "inchi_key": "YRFAWMIACMUIGK-JTQLQIEISA-N", "fixed_inchi": "InChI=1/C16H16ClN3O2/c1-10(12-4-3-5-13(17)8-12)16(22)20-15-9-18-7-6-14(15)19-11(2)21/h3-10H,1-2H3,(H,20,22)(H,18,19,21)/t10-/m0/s1/f/h19-20H", "fixed_inchikey": "YRFAWMIACMUIGK-LDOPEYNENA-N"}

> <data_format>
sdf

$$$$
