LIG(A-305)
  -OEChem-06042511353D

 44 46  0     0  0  0  0  0  0999 V2000
    8.7886    0.9999   20.8544 O   0  0  0  0  0  0  0  0  0  0  0  0
    8.2947   -0.0221   21.3073 C   0  0  0  0  0  0  0  0  0  0  0  0
    7.1527   -0.5612   20.8302 N   0  0  0  0  0  0  0  0  0  0  0  0
    6.4328    0.0167   19.7522 C   0  0  0  0  0  0  0  0  0  0  0  0
    5.2977    0.7976   20.0221 C   0  0  0  0  0  0  0  0  0  0  0  0
    4.7756    0.9856   21.4241 C   0  0  0  0  0  0  0  0  0  0  0  0
    4.6927    1.4396   18.9471 C   0  0  0  0  0  0  0  0  0  0  0  0
    5.2268    1.3007   17.6781 C   0  0  0  0  0  0  0  0  0  0  0  0
    6.3079    0.5588   17.4082 N   0  0  0  0  0  0  0  0  0  0  0  0
    6.8849   -0.0772   18.4342 C   0  0  0  0  0  0  0  0  0  0  0  0
    8.9366   -0.7601   22.4654 C   0  0  0  0  0  0  0  0  0  0  0  0
   10.3296   -0.2440   22.7635 C   0  0  0  0  0  0  0  0  0  0  0  0
   11.4287   -1.0849   22.6445 C   0  0  0  0  0  0  0  0  0  0  0  0
   12.6936   -0.5817   22.8686 C   0  0  0  0  0  0  0  0  0  0  0  0
   14.0487   -1.6746   22.8597 Cl  0  0  0  0  0  0  0  0  0  0  0  0
   12.9085    0.7453   23.1847 C   0  0  0  0  0  0  0  0  0  0  0  0
   10.5354    1.0851   23.1185 C   0  0  0  0  0  0  0  0  0  0  0  0
   11.8154    1.6032   23.3226 C   0  0  0  0  0  0  0  0  0  0  0  0
   12.0182    3.0302   23.7036 C   0  0  0  0  0  0  0  0  0  0  0  0
   13.1522    3.7023   23.2457 C   0  0  0  0  0  0  0  0  0  0  0  0
   13.4240    5.0003   23.6488 C   0  0  0  0  0  0  0  0  0  0  0  0
   11.1771    3.7441   24.5496 C   0  0  0  0  0  0  0  0  0  0  0  0
   10.0911    3.1420   25.0615 F   0  0  0  0  0  0  0  0  0  0  0  0
   11.4459    5.0381   24.9316 C   0  0  0  0  0  0  0  0  0  0  0  0
   10.5768    5.6760   25.7396 F   0  0  0  0  0  0  0  0  0  0  0  0
   12.5859    5.6972   24.5237 C   0  0  0  0  0  0  0  0  0  0  0  0
   12.9837    7.0492   25.0568 C   0  0  0  0  0  0  0  0  0  0  0  0
    6.8016   -1.3975   21.2513 H   0  0  0  0  0  0  0  0  0  0  0  0
    5.5519    1.4565   22.0450 H   0  0  0  0  0  0  0  0  0  0  0  0
    3.8845    1.6301   21.4000 H   0  0  0  0  0  0  0  0  0  0  0  0
    4.5089    0.0071   21.8501 H   0  0  0  0  0  0  0  0  0  0  0  0
    3.8107    2.0434   19.1017 H   0  0  0  0  0  0  0  0  0  0  0  0
    4.7456    1.8186   16.8617 H   0  0  0  0  0  0  0  0  0  0  0  0
    7.7464   -0.6964   18.2324 H   0  0  0  0  0  0  0  0  0  0  0  0
    8.3105   -0.6302   23.3604 H   0  0  0  0  0  0  0  0  0  0  0  0
    9.0000   -1.8292   22.2141 H   0  0  0  0  0  0  0  0  0  0  0  0
   11.2943   -2.1231   22.3790 H   0  0  0  0  0  0  0  0  0  0  0  0
   13.9131    1.1164   23.3239 H   0  0  0  0  0  0  0  0  0  0  0  0
    9.6810    1.7344   23.2396 H   0  0  0  0  0  0  0  0  0  0  0  0
   13.8282    3.2036   22.5671 H   0  0  0  0  0  0  0  0  0  0  0  0
   14.3117    5.4888   23.2748 H   0  0  0  0  0  0  0  0  0  0  0  0
   13.1211    7.7484   24.2187 H   0  0  0  0  0  0  0  0  0  0  0  0
   12.1947    7.4270   25.7237 H   0  0  0  0  0  0  0  0  0  0  0  0
   13.9259    6.9595   25.6174 H   0  0  0  0  0  0  0  0  0  0  0  0
  1  2  2  0  0  0  0
  2  3  1  0  0  0  0
  2 11  1  0  0  0  0
  3  4  1  0  0  0  0
  3 28  1  0  0  0  0
  4  5  2  0  0  0  0
  4 10  1  0  0  0  0
  5  6  1  0  0  0  0
  5  7  1  0  0  0  0
  6 29  1  0  0  0  0
  6 30  1  0  0  0  0
  6 31  1  0  0  0  0
  7  8  2  0  0  0  0
  7 32  1  0  0  0  0
  8  9  1  0  0  0  0
  8 33  1  0  0  0  0
  9 10  2  0  0  0  0
 10 34  1  0  0  0  0
 11 12  1  0  0  0  0
 11 35  1  0  0  0  0
 11 36  1  0  0  0  0
 12 13  2  0  0  0  0
 12 17  1  0  0  0  0
 13 14  1  0  0  0  0
 13 37  1  0  0  0  0
 14 15  1  0  0  0  0
 14 16  2  0  0  0  0
 16 18  1  0  0  0  0
 16 38  1  0  0  0  0
 17 18  2  0  0  0  0
 17 39  1  0  0  0  0
 18 19  1  0  0  0  0
 19 20  2  0  0  0  0
 19 22  1  0  0  0  0
 20 21  1  0  0  0  0
 20 40  1  0  0  0  0
 21 26  2  0  0  0  0
 21 41  1  0  0  0  0
 22 23  1  0  0  0  0
 22 24  2  0  0  0  0
 24 25  1  0  0  0  0
 24 26  1  0  0  0  0
 26 27  1  0  0  0  0
 27 42  1  0  0  0  0
 27 43  1  0  0  0  0
 27 44  1  0  0  0  0
M  END
> <compound_name>
MAT-POS-f42f3716-6

> <provenance>
{"isomeric_smiles": "Cc1ccc(c(c1F)F)c2cc(cc(c2)Cl)CC(=O)Nc3cnccc3C", "inchi": "InChI=1S/C21H17ClF2N2O/c1-12-5-6-25-11-18(12)26-19(27)9-14-7-15(10-16(22)8-14)17-4-3-13(2)20(23)21(17)24/h3-8,10-11H,9H2,1-2H3,(H,26,27)", "inchi_key": "KWOZOQHUQWBGBH-UHFFFAOYSA-N", "fixed_inchi": "InChI=1/C21H17ClF2N2O/c1-12-5-6-25-11-18(12)26-19(27)9-14-7-15(10-16(22)8-14)17-4-3-13(2)20(23)21(17)24/h3-8,10-11H,9H2,1-2H3,(H,26,27)/f/h26H", "fixed_inchikey": "KWOZOQHUQWBGBH-HXTKINSTNA-N"}

> <data_format>
sdf

$$$$
