LIG(A-305)
  -OEChem-06042511353D

 51 54  0     0  0  0  0  0  0999 V2000
   13.5987   -1.7365   22.7420 S   0  0  0  0  0  0  0  0  0  0  0  0
    8.5939   -4.2232   26.2166 N   0  0  0  0  0  0  0  0  0  0  0  0
    7.5333   -0.2314   18.5076 N   0  0  0  0  0  0  0  0  0  0  0  0
    7.1754   -0.0963   19.8106 N   0  0  0  0  0  0  0  0  0  0  0  0
    8.2000   -5.6591   28.0827 C   0  0  0  0  0  0  0  0  0  0  0  0
   12.6379   -0.1364   24.4801 C   0  0  0  0  0  0  0  0  0  0  0  0
    3.7695    2.1008   19.3669 C   0  0  0  0  0  0  0  0  0  0  0  0
    9.0936    1.4686   20.9764 O   0  0  0  0  0  0  0  0  0  0  0  0
    8.1149   -1.8682   25.5836 C   0  0  0  0  0  0  0  0  0  0  0  0
    7.9290   -4.3511   27.3897 C   0  0  0  0  0  0  0  0  0  0  0  0
    5.7243    0.9657   18.5918 C   0  0  0  0  0  0  0  0  0  0  0  0
    9.0398   -1.0423   23.5185 C   0  0  0  0  0  0  0  0  0  0  0  0
    9.4647   -2.3303   23.2075 C   0  0  0  0  0  0  0  0  0  0  0  0
    9.2377   -3.3713   24.0855 C   0  0  0  0  0  0  0  0  0  0  0  0
   12.2816   -0.7584   22.2871 C   0  0  0  0  0  0  0  0  0  0  0  0
   11.8498    0.0376   23.3082 C   0  0  0  0  0  0  0  0  0  0  0  0
    5.2326    1.0278   20.9728 C   0  0  0  0  0  0  0  0  0  0  0  0
    4.5863    1.7138   18.3118 C   0  0  0  0  0  0  0  0  0  0  0  0
   10.5918    0.8566   23.1793 C   0  0  0  0  0  0  0  0  0  0  0  0
   13.6298   -1.0764   24.3320 C   0  0  0  0  0  0  0  0  0  0  0  0
    4.0896    1.7618   20.6819 C   0  0  0  0  0  0  0  0  0  0  0  0
    8.8906    0.3957   21.5174 C   0  0  0  0  0  0  0  0  0  0  0  0
    6.9751   -6.2390   28.7528 C   0  0  0  0  0  0  0  0  0  0  0  0
    9.4557    0.0657   22.7154 N   0  0  0  0  0  0  0  0  0  0  0  0
    7.1701   -3.5051   27.8557 O   0  0  0  0  0  0  0  0  0  0  0  0
    8.3289   -0.8262   24.6965 C   0  0  0  0  0  0  0  0  0  0  0  0
    8.5989   -3.1422   25.2986 C   0  0  0  0  0  0  0  0  0  0  0  0
    7.9985   -0.6603   20.8596 C   0  0  0  0  0  0  0  0  0  0  0  0
    6.0335    0.6377   19.9087 C   0  0  0  0  0  0  0  0  0  0  0  0
    6.6742    0.4057   17.7657 N   0  0  0  0  0  0  0  0  0  0  0  0
    9.1638   -5.0040   25.9608 H   0  0  0  0  0  0  0  0  0  0  0  0
    8.5665   -6.3809   27.3379 H   0  0  0  0  0  0  0  0  0  0  0  0
    8.9738   -5.4966   28.8474 H   0  0  0  0  0  0  0  0  0  0  0  0
   12.4732    0.4147   25.3942 H   0  0  0  0  0  0  0  0  0  0  0  0
    2.8749    2.6716   19.1665 H   0  0  0  0  0  0  0  0  0  0  0  0
    7.5707   -1.6918   26.4996 H   0  0  0  0  0  0  0  0  0  0  0  0
    9.9749   -2.5168   22.2740 H   0  0  0  0  0  0  0  0  0  0  0  0
    9.5586   -4.3699   23.8282 H   0  0  0  0  0  0  0  0  0  0  0  0
   11.8382   -0.7670   21.3024 H   0  0  0  0  0  0  0  0  0  0  0  0
    5.4886    0.7701   21.9899 H   0  0  0  0  0  0  0  0  0  0  0  0
    4.3425    1.9880   17.2961 H   0  0  0  0  0  0  0  0  0  0  0  0
   10.3464    1.2837   24.1628 H   0  0  0  0  0  0  0  0  0  0  0  0
   10.7723    1.6700   22.4610 H   0  0  0  0  0  0  0  0  0  0  0  0
   14.3297   -1.3608   25.1038 H   0  0  0  0  0  0  0  0  0  0  0  0
    3.4393    2.0747   21.4855 H   0  0  0  0  0  0  0  0  0  0  0  0
    7.2381   -7.1901   29.2389 H   0  0  0  0  0  0  0  0  0  0  0  0
    6.6014   -5.5323   29.5083 H   0  0  0  0  0  0  0  0  0  0  0  0
    6.1941   -6.4165   27.9987 H   0  0  0  0  0  0  0  0  0  0  0  0
    7.9431    0.1576   24.9192 H   0  0  0  0  0  0  0  0  0  0  0  0
    7.3444   -1.1007   21.6265 H   0  0  0  0  0  0  0  0  0  0  0  0
    8.6365   -1.4452   20.4273 H   0  0  0  0  0  0  0  0  0  0  0  0
  1 15  1  0  0  0  0
  1 20  1  0  0  0  0
  2 10  1  0  0  0  0
  2 27  1  0  0  0  0
  2 31  1  0  0  0  0
  3  4  1  0  0  0  0
  3 30  2  0  0  0  0
  4 28  1  0  0  0  0
  4 29  1  0  0  0  0
  5 10  1  0  0  0  0
  5 23  1  0  0  0  0
  5 32  1  0  0  0  0
  5 33  1  0  0  0  0
  6 16  1  0  0  0  0
  6 20  2  0  0  0  0
  6 34  1  0  0  0  0
  7 18  2  0  0  0  0
  7 21  1  0  0  0  0
  7 35  1  0  0  0  0
  8 22  2  0  0  0  0
  9 26  2  0  0  0  0
  9 27  1  0  0  0  0
  9 36  1  0  0  0  0
 10 25  2  0  0  0  0
 11 18  1  0  0  0  0
 11 29  2  0  0  0  0
 11 30  1  0  0  0  0
 12 13  2  0  0  0  0
 12 24  1  0  0  0  0
 12 26  1  0  0  0  0
 13 14  1  0  0  0  0
 13 37  1  0  0  0  0
 14 27  2  0  0  0  0
 14 38  1  0  0  0  0
 15 16  2  0  0  0  0
 15 39  1  0  0  0  0
 16 19  1  0  0  0  0
 17 21  2  0  0  0  0
 17 29  1  0  0  0  0
 17 40  1  0  0  0  0
 18 41  1  0  0  0  0
 19 24  1  0  0  0  0
 19 42  1  0  0  0  0
 19 43  1  0  0  0  0
 20 44  1  0  0  0  0
 21 45  1  0  0  0  0
 22 24  1  0  0  0  0
 22 28  1  0  0  0  0
 23 46  1  0  0  0  0
 23 47  1  0  0  0  0
 23 48  1  0  0  0  0
 26 49  1  0  0  0  0
 28 50  1  0  0  0  0
 28 51  1  0  0  0  0
M  END
> <compound_name>
ALP-POS-c59291d4-2

> <provenance>
{"isomeric_smiles": "CCC(=O)Nc1ccc(cc1)N(Cc2ccsc2)C(=O)Cn3c4ccccc4nn3", "inchi": "InChI=1S/C22H21N5O2S/c1-2-21(28)23-17-7-9-18(10-8-17)26(13-16-11-12-30-15-16)22(29)14-27-20-6-4-3-5-19(20)24-25-27/h3-12,15H,2,13-14H2,1H3,(H,23,28)", "inchi_key": "TWIVXCFEBRGEKY-UHFFFAOYSA-N", "fixed_inchi": "InChI=1/C22H21N5O2S/c1-2-21(28)23-17-7-9-18(10-8-17)26(13-16-11-12-30-15-16)22(29)14-27-20-6-4-3-5-19(20)24-25-27/h3-12,15H,2,13-14H2,1H3,(H,23,28)/f/h23H", "fixed_inchikey": "TWIVXCFEBRGEKY-MPIMZMORNA-N"}

> <data_format>
sdf

$$$$
