LIG(A-306)
  -OEChem-06042511423D

 44 46  0     0  0  0  0  0  0999 V2000
   14.0042   -1.1195   21.5034 Cl  0  0  0  0  0  0  0  0  0  0  0  0
   12.6293   -0.7786   22.5154 C   0  0  0  0  0  0  0  0  0  0  0  0
   12.7755    0.0848   23.5837 C   0  0  0  0  0  0  0  0  0  0  0  0
   11.6524    0.4347   24.3128 C   0  0  0  0  0  0  0  0  0  0  0  0
   10.4063   -0.0518   23.9507 C   0  0  0  0  0  0  0  0  0  0  0  0
   11.4000   -1.2981   22.1672 C   0  0  0  0  0  0  0  0  0  0  0  0
   10.2621   -0.9011   22.8605 C   0  0  0  0  0  0  0  0  0  0  0  0
    8.8901   -1.2765   22.3490 C   0  0  0  0  0  0  0  0  0  0  0  0
    8.3021   -0.2545   21.3942 C   0  0  0  0  0  0  0  0  0  0  0  0
    8.8314    0.8413   21.2056 O   0  0  0  0  0  0  0  0  0  0  0  0
    7.1750   -0.6589   20.7685 N   0  0  0  0  0  0  0  0  0  0  0  0
    6.4951   -0.0251   19.7099 C   0  0  0  0  0  0  0  0  0  0  0  0
    6.8354   -0.1692   18.3660 C   0  0  0  0  0  0  0  0  0  0  0  0
    6.2355    0.4672   17.3524 N   0  0  0  0  0  0  0  0  0  0  0  0
    5.2354    1.2899   17.6507 C   0  0  0  0  0  0  0  0  0  0  0  0
    4.7653    1.5334   18.9641 C   0  0  0  0  0  0  0  0  0  0  0  0
    5.4151    0.8497   20.0305 C   0  0  0  0  0  0  0  0  0  0  0  0
    4.9570    1.0821   21.3498 C   0  0  0  0  0  0  0  0  0  0  0  0
    3.9249    1.9392   21.5934 C   0  0  0  0  0  0  0  0  0  0  0  0
    3.7063    2.4202   19.2658 C   0  0  0  0  0  0  0  0  0  0  0  0
    3.2902    2.6367   20.5690 C   0  0  0  0  0  0  0  0  0  0  0  0
    2.2296    3.6935   20.8826 C   0  0  0  0  0  0  0  0  0  0  0  0
    1.5091    4.0979   19.7018 O   0  0  0  0  0  0  0  0  0  0  0  0
    2.8955    4.9483   21.4357 C   0  0  0  0  0  0  0  0  0  0  0  0
    1.2137    3.1517   21.8832 C   0  0  0  0  0  0  0  0  0  0  0  0
   13.7465    0.4789   23.8447 H   0  0  0  0  0  0  0  0  0  0  0  0
   11.7474    1.0889   25.1667 H   0  0  0  0  0  0  0  0  0  0  0  0
    9.5359    0.2329   24.5234 H   0  0  0  0  0  0  0  0  0  0  0  0
   11.3217   -2.0106   21.3593 H   0  0  0  0  0  0  0  0  0  0  0  0
    8.9653   -2.2406   21.8247 H   0  0  0  0  0  0  0  0  0  0  0  0
    8.2131   -1.3792   23.2099 H   0  0  0  0  0  0  0  0  0  0  0  0
    6.7738   -1.5138   21.0975 H   0  0  0  0  0  0  0  0  0  0  0  0
    7.6430   -0.8444   18.1245 H   0  0  0  0  0  0  0  0  0  0  0  0
    4.7487    1.8073   16.8372 H   0  0  0  0  0  0  0  0  0  0  0  0
    5.4320    0.5731   22.1755 H   0  0  0  0  0  0  0  0  0  0  0  0
    3.5901    2.0812   22.6103 H   0  0  0  0  0  0  0  0  0  0  0  0
    3.2099    2.9416   18.4606 H   0  0  0  0  0  0  0  0  0  0  0  0
    1.0214    4.8925   19.8845 H   0  0  0  0  0  0  0  0  0  0  0  0
    2.1275    5.7036   21.6588 H   0  0  0  0  0  0  0  0  0  0  0  0
    3.4417    4.6976   22.3570 H   0  0  0  0  0  0  0  0  0  0  0  0
    3.5981    5.3491   20.6903 H   0  0  0  0  0  0  0  0  0  0  0  0
    0.4601    3.9242   22.0961 H   0  0  0  0  0  0  0  0  0  0  0  0
    0.7197    2.2646   21.4601 H   0  0  0  0  0  0  0  0  0  0  0  0
    1.7286    2.8751   22.8151 H   0  0  0  0  0  0  0  0  0  0  0  0
  1  2  1  0  0  0  0
  2  3  2  0  0  0  0
  2  6  1  0  0  0  0
  3  4  1  0  0  0  0
  3 26  1  0  0  0  0
  4  5  2  0  0  0  0
  4 27  1  0  0  0  0
  5  7  1  0  0  0  0
  5 28  1  0  0  0  0
  6  7  2  0  0  0  0
  6 29  1  0  0  0  0
  7  8  1  0  0  0  0
  8  9  1  0  0  0  0
  8 30  1  0  0  0  0
  8 31  1  0  0  0  0
  9 10  2  0  0  0  0
  9 11  1  0  0  0  0
 11 12  1  0  0  0  0
 11 32  1  0  0  0  0
 12 13  2  0  0  0  0
 12 17  1  0  0  0  0
 13 14  1  0  0  0  0
 13 33  1  0  0  0  0
 14 15  2  0  0  0  0
 15 16  1  0  0  0  0
 15 34  1  0  0  0  0
 16 17  2  0  0  0  0
 16 20  1  0  0  0  0
 17 18  1  0  0  0  0
 18 19  2  0  0  0  0
 18 35  1  0  0  0  0
 19 21  1  0  0  0  0
 19 36  1  0  0  0  0
 20 21  2  0  0  0  0
 20 37  1  0  0  0  0
 21 22  1  0  0  0  0
 22 23  1  0  0  0  0
 22 24  1  0  0  0  0
 22 25  1  0  0  0  0
 23 38  1  0  0  0  0
 24 39  1  0  0  0  0
 24 40  1  0  0  0  0
 24 41  1  0  0  0  0
 25 42  1  0  0  0  0
 25 43  1  0  0  0  0
 25 44  1  0  0  0  0
M  END
> <compound_name>
MAT-POS-c20a539d-4

> <provenance>
{"isomeric_smiles": "CC(C)(c1ccc2c(c1)cncc2NC(=O)Cc3cccc(c3)Cl)O", "inchi": "InChI=1S/C20H19ClN2O2/c1-20(2,25)15-6-7-17-14(10-15)11-22-12-18(17)23-19(24)9-13-4-3-5-16(21)8-13/h3-8,10-12,25H,9H2,1-2H3,(H,23,24)", "inchi_key": "OUTGZQNFEUVFAN-UHFFFAOYSA-N", "fixed_inchi": "InChI=1/C20H19ClN2O2/c1-20(2,25)15-6-7-17-14(10-15)11-22-12-18(17)23-19(24)9-13-4-3-5-16(21)8-13/h3-8,10-12,25H,9H2,1-2H3,(H,23,24)/f/h23H", "fixed_inchikey": "OUTGZQNFEUVFAN-MPIMZMORNA-N"}

> <data_format>
sdf

$$$$
