LIG(A-306)
  -OEChem-06042511403D

 43 46  0     1  0  0  0  0  0999 V2000
    2.5398    2.9018   20.9350 F   0  0  0  0  0  0  0  0  0  0  0  0
    3.7067    2.2197   20.7809 C   0  0  0  0  0  0  0  0  0  0  0  0
    4.1216    1.9227   19.5238 C   0  0  0  0  0  0  0  0  0  0  0  0
    4.3948    1.8536   21.9128 C   0  0  0  0  0  0  0  0  0  0  0  0
    5.5608    1.1616   21.7897 C   0  0  0  0  0  0  0  0  0  0  0  0
    6.0657    0.7996   20.5156 C   0  0  0  0  0  0  0  0  0  0  0  0
    5.3176    1.1797   19.3617 C   0  0  0  0  0  0  0  0  0  0  0  0
    5.7994    0.7597   18.0976 C   0  0  0  0  0  0  0  0  0  0  0  0
    6.8984    0.0397   17.9205 N   0  0  0  0  0  0  0  0  0  0  0  0
    7.6045   -0.2934   19.0114 C   0  0  0  0  0  0  0  0  0  0  0  0
    7.2706    0.0496   20.3225 C   0  0  0  0  0  0  0  0  0  0  0  0
    8.0547   -0.2775   21.4554 N   0  0  0  0  0  0  0  0  0  0  0  0
    9.1878    0.3144   21.9223 C   0  0  0  0  0  0  0  0  0  0  0  0
    9.7178    1.3024   21.4303 O   0  0  0  0  0  0  0  0  0  0  0  0
    9.8399   -0.3786   23.1752 C   0  0  1  0  0  0  0  0  0  0  0  0
    9.4588   -1.7416   22.9672 O   0  0  0  0  0  0  0  0  0  0  0  0
    9.8949   -2.6927   23.9441 C   0  0  0  0  0  0  0  0  0  0  0  0
   11.3489   -0.2597   23.2240 C   0  0  0  0  0  0  0  0  0  0  0  0
   12.1148   -0.8207   22.2069 C   0  0  0  0  0  0  0  0  0  0  0  0
   13.4338   -0.4367   22.0588 C   0  0  0  0  0  0  0  0  0  0  0  0
   14.3906   -1.1937   20.8157 Cl  0  0  0  0  0  0  0  0  0  0  0  0
   14.0199    0.5032   22.8868 C   0  0  0  0  0  0  0  0  0  0  0  0
   13.2810    1.0492   23.9219 C   0  0  0  0  0  0  0  0  0  0  0  0
   11.9560    0.6703   24.0820 C   0  0  0  0  0  0  0  0  0  0  0  0
   11.2831    1.2672   25.1191 O   0  0  0  0  0  0  0  0  0  0  0  0
    9.8811    1.5073   24.8472 C   0  0  0  0  0  0  0  0  0  0  0  0
    9.1610    0.2454   24.4073 C   0  0  0  0  0  0  0  0  0  0  0  0
    3.5524    2.2458   18.6647 H   0  0  0  0  0  0  0  0  0  0  0  0
    4.0146    2.1123   22.8900 H   0  0  0  0  0  0  0  0  0  0  0  0
    6.1100    0.8839   22.6772 H   0  0  0  0  0  0  0  0  0  0  0  0
    5.2352    1.0444   17.2218 H   0  0  0  0  0  0  0  0  0  0  0  0
    8.5033   -0.8734   18.8633 H   0  0  0  0  0  0  0  0  0  0  0  0
    7.7283   -1.0569   21.9902 H   0  0  0  0  0  0  0  0  0  0  0  0
    9.5366   -3.6949   23.6664 H   0  0  0  0  0  0  0  0  0  0  0  0
   10.9940   -2.6954   23.9879 H   0  0  0  0  0  0  0  0  0  0  0  0
    9.4894   -2.4184   24.9291 H   0  0  0  0  0  0  0  0  0  0  0  0
   11.6819   -1.5503   21.5386 H   0  0  0  0  0  0  0  0  0  0  0  0
   15.0436    0.8081   22.7273 H   0  0  0  0  0  0  0  0  0  0  0  0
   13.7307    1.7621   24.5972 H   0  0  0  0  0  0  0  0  0  0  0  0
    9.4026    1.8884   25.7615 H   0  0  0  0  0  0  0  0  0  0  0  0
    9.7983    2.2596   24.0491 H   0  0  0  0  0  0  0  0  0  0  0  0
    9.1748   -0.4823   25.2321 H   0  0  0  0  0  0  0  0  0  0  0  0
    8.1196    0.4950   24.1559 H   0  0  0  0  0  0  0  0  0  0  0  0
  1  2  1  0  0  0  0
  2  3  2  0  0  0  0
  2  4  1  0  0  0  0
  3  7  1  0  0  0  0
  3 28  1  0  0  0  0
  4  5  2  0  0  0  0
  4 29  1  0  0  0  0
  5  6  1  0  0  0  0
  5 30  1  0  0  0  0
  6  7  2  0  0  0  0
  6 11  1  0  0  0  0
  7  8  1  0  0  0  0
  8  9  2  0  0  0  0
  8 31  1  0  0  0  0
  9 10  1  0  0  0  0
 10 11  2  0  0  0  0
 10 32  1  0  0  0  0
 11 12  1  0  0  0  0
 12 13  1  0  0  0  0
 12 33  1  0  0  0  0
 13 14  2  0  0  0  0
 13 15  1  0  0  0  0
 15 16  1  0  0  0  0
 15 18  1  0  0  0  0
 15 27  1  0  0  0  0
 16 17  1  0  0  0  0
 17 34  1  0  0  0  0
 17 35  1  0  0  0  0
 17 36  1  0  0  0  0
 18 19  2  0  0  0  0
 18 24  1  0  0  0  0
 19 20  1  0  0  0  0
 19 37  1  0  0  0  0
 20 21  1  0  0  0  0
 20 22  2  0  0  0  0
 22 23  1  0  0  0  0
 22 38  1  0  0  0  0
 23 24  2  0  0  0  0
 23 39  1  0  0  0  0
 24 25  1  0  0  0  0
 25 26  1  0  0  0  0
 26 27  1  0  0  0  0
 26 40  1  0  0  0  0
 26 41  1  0  0  0  0
 27 42  1  0  0  0  0
 27 43  1  0  0  0  0
M  END
> <compound_name>
ALP-POS-6f6ae286-3

> <provenance>
{"isomeric_smiles": "CO[C@]1(CCOc2c1cc(cc2)Cl)C(=O)Nc3cncc4c3ccc(c4)F", "inchi": "InChI=1S/C20H16ClFN2O3/c1-26-20(6-7-27-18-5-2-13(21)9-16(18)20)19(25)24-17-11-23-10-12-8-14(22)3-4-15(12)17/h2-5,8-11H,6-7H2,1H3,(H,24,25)/t20-/m0/s1", "inchi_key": "FQAWNARVGLFFLT-FQEVSTJZSA-N", "fixed_inchi": "InChI=1/C20H16ClFN2O3/c1-26-20(6-7-27-18-5-2-13(21)9-16(18)20)19(25)24-17-11-23-10-12-8-14(22)3-4-15(12)17/h2-5,8-11H,6-7H2,1H3,(H,24,25)/t20-/m0/s1/f/h24H", "fixed_inchikey": "FQAWNARVGLFFLT-ZSWWDKBRNA-N"}

> <data_format>
sdf

$$$$
