LIG(A-305)
  -OEChem-06042511323D

 31 32  0     0  0  0  0  0  0999 V2000
   13.8742   -1.8068   21.2386 Cl  0  0  0  0  0  0  0  0  0  0  0  0
   12.6621   -1.0588   22.2385 C   0  0  0  0  0  0  0  0  0  0  0  0
   13.0451   -0.1578   23.2065 C   0  0  0  0  0  0  0  0  0  0  0  0
   12.0710    0.3822   24.0314 C   0  0  0  0  0  0  0  0  0  0  0  0
   10.7360    0.0501   23.8474 C   0  0  0  0  0  0  0  0  0  0  0  0
   11.3412   -1.4069   22.0505 C   0  0  0  0  0  0  0  0  0  0  0  0
   10.3571   -0.8339   22.8475 C   0  0  0  0  0  0  0  0  0  0  0  0
    8.9001   -1.1180   22.5654 C   0  0  0  0  0  0  0  0  0  0  0  0
    8.4491   -0.3101   21.3664 C   0  0  0  0  0  0  0  0  0  0  0  0
    9.0311    0.7129   21.0243 O   0  0  0  0  0  0  0  0  0  0  0  0
    7.3532   -0.7802   20.7454 N   0  0  0  0  0  0  0  0  0  0  0  0
    6.6301   -0.1173   19.7323 C   0  0  0  0  0  0  0  0  0  0  0  0
    7.0172   -0.1464   18.3973 C   0  0  0  0  0  0  0  0  0  0  0  0
    6.3892    0.5345   17.4373 N   0  0  0  0  0  0  0  0  0  0  0  0
    5.3381    1.2855   17.7952 C   0  0  0  0  0  0  0  0  0  0  0  0
    5.5361    0.6726   20.0712 C   0  0  0  0  0  0  0  0  0  0  0  0
    4.8721    1.4035   19.0992 C   0  0  0  0  0  0  0  0  0  0  0  0
    3.7030    2.2935   19.4481 C   0  0  0  0  0  0  0  0  0  0  0  0
   14.0819    0.1222   23.3205 H   0  0  0  0  0  0  0  0  0  0  0  0
   12.3518    1.0641   24.8205 H   0  0  0  0  0  0  0  0  0  0  0  0
    9.9841    0.4845   24.4895 H   0  0  0  0  0  0  0  0  0  0  0  0
   11.0723   -2.1219   21.2870 H   0  0  0  0  0  0  0  0  0  0  0  0
    8.7700   -2.1899   22.3549 H   0  0  0  0  0  0  0  0  0  0  0  0
    8.2965   -0.8406   23.4421 H   0  0  0  0  0  0  0  0  0  0  0  0
    7.0211   -1.6804   21.0271 H   0  0  0  0  0  0  0  0  0  0  0  0
    7.8693   -0.7507   18.1237 H   0  0  0  0  0  0  0  0  0  0  0  0
    4.8208    1.8333   17.0215 H   0  0  0  0  0  0  0  0  0  0  0  0
    5.2026    0.7164   21.0975 H   0  0  0  0  0  0  0  0  0  0  0  0
    3.3307    2.7846   18.5370 H   0  0  0  0  0  0  0  0  0  0  0  0
    2.8999    1.6866   19.8917 H   0  0  0  0  0  0  0  0  0  0  0  0
    4.0267    3.0575   20.1702 H   0  0  0  0  0  0  0  0  0  0  0  0
  1  2  1  0  0  0  0
  2  3  2  0  0  0  0
  2  6  1  0  0  0  0
  3  4  1  0  0  0  0
  3 19  1  0  0  0  0
  4  5  2  0  0  0  0
  4 20  1  0  0  0  0
  5  7  1  0  0  0  0
  5 21  1  0  0  0  0
  6  7  2  0  0  0  0
  6 22  1  0  0  0  0
  7  8  1  0  0  0  0
  8  9  1  0  0  0  0
  8 23  1  0  0  0  0
  8 24  1  0  0  0  0
  9 10  2  0  0  0  0
  9 11  1  0  0  0  0
 11 12  1  0  0  0  0
 11 25  1  0  0  0  0
 12 13  2  0  0  0  0
 12 16  1  0  0  0  0
 13 14  1  0  0  0  0
 13 26  1  0  0  0  0
 14 15  2  0  0  0  0
 15 17  1  0  0  0  0
 15 27  1  0  0  0  0
 16 17  2  0  0  0  0
 16 28  1  0  0  0  0
 17 18  1  0  0  0  0
 18 29  1  0  0  0  0
 18 30  1  0  0  0  0
 18 31  1  0  0  0  0
M  END
> <compound_name>
EDG-MED-0da5ad92-12

> <provenance>
{"isomeric_smiles": "Cc1cc(cnc1)NC(=O)Cc2cccc(c2)Cl", "inchi": "InChI=1S/C14H13ClN2O/c1-10-5-13(9-16-8-10)17-14(18)7-11-3-2-4-12(15)6-11/h2-6,8-9H,7H2,1H3,(H,17,18)", "inchi_key": "BMYRQBMWNFDONV-UHFFFAOYSA-N", "fixed_inchi": "InChI=1/C14H13ClN2O/c1-10-5-13(9-16-8-10)17-14(18)7-11-3-2-4-12(15)6-11/h2-6,8-9H,7H2,1H3,(H,17,18)/f/h17H", "fixed_inchikey": "BMYRQBMWNFDONV-HCKMINDGNA-N"}

> <data_format>
sdf

$$$$
