LIG(A-306)
  -OEChem-06042511403D

 63 68  0     1  0  0  0  0  0999 V2000
    9.3149    1.2831   20.8945 O   0  0  0  0  0  0  0  0  0  0  0  0
    8.8465    0.3731   21.5583 C   0  0  0  0  0  0  0  0  0  0  0  0
    7.7425   -0.3038   21.1559 N   0  0  0  0  0  0  0  0  0  0  0  0
    6.9257    0.0345   20.0560 C   0  0  0  0  0  0  0  0  0  0  0  0
    5.7426    0.8044   20.2953 C   0  0  0  0  0  0  0  0  0  0  0  0
    5.2320    1.0831   21.5889 C   0  0  0  0  0  0  0  0  0  0  0  0
    4.1067    1.8409   21.7521 C   0  0  0  0  0  0  0  0  0  0  0  0
    3.4390    2.3641   20.6507 C   0  0  0  0  0  0  0  0  0  0  0  0
    3.8897    2.1235   19.3851 C   0  0  0  0  0  0  0  0  0  0  0  0
    5.0459    1.3306   19.1709 C   0  0  0  0  0  0  0  0  0  0  0  0
    5.5534    1.0370   17.8833 C   0  0  0  0  0  0  0  0  0  0  0  0
    6.6286    0.2962   17.6592 N   0  0  0  0  0  0  0  0  0  0  0  0
    7.2822   -0.1881   18.7246 C   0  0  0  0  0  0  0  0  0  0  0  0
    9.4238    0.0772   22.9515 C   0  0  1  0  0  0  0  0  0  0  0  0
   10.9669    0.1963   22.9517 C   0  0  0  0  0  0  0  0  0  0  0  0
   11.7690   -0.6090   22.1371 C   0  0  0  0  0  0  0  0  0  0  0  0
   13.1320   -0.3638   22.0645 C   0  0  0  0  0  0  0  0  0  0  0  0
   14.0955   -1.2555   20.9147 Cl  0  0  0  0  0  0  0  0  0  0  0  0
   13.7349    0.6177   22.8134 C   0  0  0  0  0  0  0  0  0  0  0  0
   12.9638    1.3990   23.6489 C   0  0  0  0  0  0  0  0  0  0  0  0
   11.5968    1.2068   23.6935 C   0  0  0  0  0  0  0  0  0  0  0  0
   10.9066    2.1509   24.4118 O   0  0  0  0  0  0  0  0  0  0  0  0
    9.5971    1.7611   24.8335 C   0  0  0  0  0  0  0  0  0  0  0  0
    8.7738    1.2863   23.6634 C   0  0  0  0  0  0  0  0  0  0  0  0
    8.9655   -1.1677   23.7407 C   0  0  0  0  0  0  0  0  0  0  0  0
    9.2417   -2.5076   23.0996 C   0  0  0  0  0  0  0  0  0  0  0  0
    9.2335   -2.6518   21.8867 O   0  0  0  0  0  0  0  0  0  0  0  0
    9.4506   -3.5448   23.9393 N   0  0  0  0  0  0  0  0  0  0  0  0
    8.5134   -4.6530   24.1951 C   0  0  2  0  0  0  0  0  0  0  0  0
    7.8749   -4.4572   25.5690 C   0  0  0  0  0  0  0  0  0  0  0  0
   10.5871   -3.7385   24.8415 C   0  0  0  0  0  0  0  0  0  0  0  0
   10.1747   -4.9894   25.6205 C   0  0  2  0  0  0  0  0  0  0  0  0
    9.4764   -5.7962   24.5216 C   0  0  0  0  0  0  0  0  0  0  0  0
    9.0335   -4.5619   26.4661 N   0  3  2  0  0  0  0  0  0  0  0  0
    8.7850   -5.4506   27.6025 C   0  0  0  0  0  0  0  0  0  0  0  0
    7.4847   -1.1127   21.6844 H   0  0  0  0  0  0  0  0  0  0  0  0
    5.7399    0.6906   22.4574 H   0  0  0  0  0  0  0  0  0  0  0  0
    3.7324    2.0352   22.7463 H   0  0  0  0  0  0  0  0  0  0  0  0
    2.5550    2.9668   20.7980 H   0  0  0  0  0  0  0  0  0  0  0  0
    3.3617    2.5402   18.5401 H   0  0  0  0  0  0  0  0  0  0  0  0
    5.0314    1.4424   17.0292 H   0  0  0  0  0  0  0  0  0  0  0  0
    8.1535   -0.7986   18.5384 H   0  0  0  0  0  0  0  0  0  0  0  0
   11.3304   -1.4158   21.5688 H   0  0  0  0  0  0  0  0  0  0  0  0
   14.8013    0.7759   22.7486 H   0  0  0  0  0  0  0  0  0  0  0  0
   13.4263    2.1564   24.2644 H   0  0  0  0  0  0  0  0  0  0  0  0
    9.6828    0.9464   25.5676 H   0  0  0  0  0  0  0  0  0  0  0  0
    9.0973    2.6231   25.2993 H   0  0  0  0  0  0  0  0  0  0  0  0
    7.7778    0.9918   24.0260 H   0  0  0  0  0  0  0  0  0  0  0  0
    8.6724    2.1108   22.9423 H   0  0  0  0  0  0  0  0  0  0  0  0
    9.4742   -1.1520   24.7158 H   0  0  0  0  0  0  0  0  0  0  0  0
    7.8791   -1.0867   23.8924 H   0  0  0  0  0  0  0  0  0  0  0  0
    7.8017   -4.8707   23.3852 H   0  0  0  0  0  0  0  0  0  0  0  0
    7.3959   -3.4703   25.6494 H   0  0  0  0  0  0  0  0  0  0  0  0
    7.1343   -5.2426   25.7805 H   0  0  0  0  0  0  0  0  0  0  0  0
   11.5175   -3.9076   24.2796 H   0  0  0  0  0  0  0  0  0  0  0  0
   10.7152   -2.8758   25.5119 H   0  0  0  0  0  0  0  0  0  0  0  0
   10.9929   -5.5115   26.1382 H   0  0  0  0  0  0  0  0  0  0  0  0
    8.9731   -6.7005   24.8941 H   0  0  0  0  0  0  0  0  0  0  0  0
   10.1391   -6.0635   23.6854 H   0  0  0  0  0  0  0  0  0  0  0  0
    9.2367   -3.6493   26.8210 H   0  0  0  0  0  0  0  0  0  0  0  0
    9.6812   -5.4921   28.2389 H   0  0  0  0  0  0  0  0  0  0  0  0
    7.9366   -5.0676   28.1887 H   0  0  0  0  0  0  0  0  0  0  0  0
    8.5501   -6.4600   27.2338 H   0  0  0  0  0  0  0  0  0  0  0  0
  1  2  2  0  0  0  0
  2  3  1  0  0  0  0
  2 14  1  0  0  0  0
  3  4  1  0  0  0  0
  3 36  1  0  0  0  0
  4  5  2  0  0  0  0
  4 13  1  0  0  0  0
  5  6  1  0  0  0  0
  5 10  1  0  0  0  0
  6  7  2  0  0  0  0
  6 37  1  0  0  0  0
  7  8  1  0  0  0  0
  7 38  1  0  0  0  0
  8  9  2  0  0  0  0
  8 39  1  0  0  0  0
  9 10  1  0  0  0  0
  9 40  1  0  0  0  0
 10 11  2  0  0  0  0
 11 12  1  0  0  0  0
 11 41  1  0  0  0  0
 12 13  2  0  0  0  0
 13 42  1  0  0  0  0
 14 15  1  0  0  0  0
 14 24  1  0  0  0  0
 14 25  1  0  0  0  0
 15 16  2  0  0  0  0
 15 21  1  0  0  0  0
 16 17  1  0  0  0  0
 16 43  1  0  0  0  0
 17 18  1  0  0  0  0
 17 19  2  0  0  0  0
 19 20  1  0  0  0  0
 19 44  1  0  0  0  0
 20 21  2  0  0  0  0
 20 45  1  0  0  0  0
 21 22  1  0  0  0  0
 22 23  1  0  0  0  0
 23 24  1  0  0  0  0
 23 46  1  0  0  0  0
 23 47  1  0  0  0  0
 24 48  1  0  0  0  0
 24 49  1  0  0  0  0
 25 26  1  0  0  0  0
 25 50  1  0  0  0  0
 25 51  1  0  0  0  0
 26 27  2  0  0  0  0
 26 28  1  0  0  0  0
 28 29  1  0  0  0  0
 28 31  1  0  0  0  0
 29 30  1  0  0  0  0
 29 33  1  0  0  0  0
 29 52  1  0  0  0  0
 30 34  1  0  0  0  0
 30 53  1  0  0  0  0
 30 54  1  0  0  0  0
 31 32  1  0  0  0  0
 31 55  1  0  0  0  0
 31 56  1  0  0  0  0
 32 33  1  0  0  0  0
 32 34  1  0  0  0  0
 32 57  1  0  0  0  0
 33 58  1  0  0  0  0
 33 59  1  0  0  0  0
 34 35  1  0  0  0  0
 34 60  1  0  0  0  0
 35 61  1  0  0  0  0
 35 62  1  0  0  0  0
 35 63  1  0  0  0  0
M  CHG  1  34   1
M  END
> <compound_name>
EDG-MED-ba1ac7b9-13

> <provenance>
{"isomeric_smiles": "C[N@@H+]1C[C@@H]2C[C@H]1CN2C(=O)C[C@]3(CCOc4c3cc(cc4)Cl)C(=O)Nc5cncc6c5cccc6", "inchi": "InChI=1S/C27H27ClN4O3/c1-31-15-20-11-19(31)16-32(20)25(33)12-27(8-9-35-24-7-6-18(28)10-22(24)27)26(34)30-23-14-29-13-17-4-2-3-5-21(17)23/h2-7,10,13-14,19-20H,8-9,11-12,15-16H2,1H3,(H,30,34)/p+1/t19-,20-,27-/m0/s1", "inchi_key": "QQWBTWVCIPHEIH-OSOCVKALSA-O", "fixed_inchi": "InChI=1/C27H27ClN4O3/c1-31-15-20-11-19(31)16-32(20)25(33)12-27(8-9-35-24-7-6-18(28)10-22(24)27)26(34)30-23-14-29-13-17-4-2-3-5-21(17)23/h2-7,10,13-14,19-20H,8-9,11-12,15-16H2,1H3,(H,30,34)/p+1/t19-,20-,27-/m0/s1/fC27H28ClN4O3/h30-31H/q+1", "fixed_inchikey": "QQWBTWVCIPHEIH-QDYLMPRJNA-O"}

> <data_format>
sdf

$$$$
