LIG(A-306)
  -OEChem-06042511413D

 39 42  0     1  0  0  0  0  0999 V2000
   13.9709   -1.7275   21.2827 Cl  0  0  0  0  0  0  0  0  0  0  0  0
   12.7400   -1.0687   22.3088 C   0  0  0  0  0  0  0  0  0  0  0  0
   13.0730   -0.1687   23.2988 C   0  0  0  0  0  0  0  0  0  0  0  0
   14.3800    0.0484   23.5787 F   0  0  0  0  0  0  0  0  0  0  0  0
   12.1160    0.4532   24.0610 C   0  0  0  0  0  0  0  0  0  0  0  0
   11.4140   -1.3878   22.0919 C   0  0  0  0  0  0  0  0  0  0  0  0
   10.4080   -0.7889   22.8481 C   0  0  0  0  0  0  0  0  0  0  0  0
   10.7870    0.1381   23.8321 C   0  0  0  0  0  0  0  0  0  0  0  0
    9.8891    0.7720   24.6622 O   0  0  0  0  0  0  0  0  0  0  0  0
    8.4831    0.5649   24.3973 C   0  0  0  0  0  0  0  0  0  0  0  0
    8.1761   -0.8352   23.9253 C   0  0  0  0  0  0  0  0  0  0  0  0
    8.9460   -1.1250   22.6222 C   0  0  1  0  0  0  0  0  0  0  0  0
    8.4698   -0.2610   21.4533 C   0  0  0  0  0  0  0  0  0  0  0  0
    9.1987    0.5741   20.9243 O   0  0  0  0  0  0  0  0  0  0  0  0
    7.1608   -0.3911   21.1414 N   0  0  0  0  0  0  0  0  0  0  0  0
    6.4746   -0.0181   19.9735 C   0  0  0  0  0  0  0  0  0  0  0  0
    6.9855   -0.0630   18.6755 C   0  0  0  0  0  0  0  0  0  0  0  0
    6.4374    0.5120   17.5955 N   0  0  0  0  0  0  0  0  0  0  0  0
    5.3353    1.2189   17.7797 C   0  0  0  0  0  0  0  0  0  0  0  0
    5.2846    0.7507   20.1677 C   0  0  0  0  0  0  0  0  0  0  0  0
    4.7397    1.0156   21.4537 C   0  0  0  0  0  0  0  0  0  0  0  0
    3.7156    1.8995   21.5629 C   0  0  0  0  0  0  0  0  0  0  0  0
    3.2377    2.1814   22.8030 F   0  0  0  0  0  0  0  0  0  0  0  0
    4.7134    1.4037   19.0378 C   0  0  0  0  0  0  0  0  0  0  0  0
    3.6284    2.2906   19.2369 C   0  0  0  0  0  0  0  0  0  0  0  0
    3.1445    2.5355   20.4890 C   0  0  0  0  0  0  0  0  0  0  0  0
   12.3923    1.1701   24.8200 H   0  0  0  0  0  0  0  0  0  0  0  0
   11.1543   -2.1076   21.3298 H   0  0  0  0  0  0  0  0  0  0  0  0
    7.9195    0.7551   25.3227 H   0  0  0  0  0  0  0  0  0  0  0  0
    8.1635    1.2754   23.6208 H   0  0  0  0  0  0  0  0  0  0  0  0
    8.4807   -1.5565   24.6979 H   0  0  0  0  0  0  0  0  0  0  0  0
    7.0959   -0.9300   23.7405 H   0  0  0  0  0  0  0  0  0  0  0  0
    8.8429   -2.1890   22.3629 H   0  0  0  0  0  0  0  0  0  0  0  0
    6.5960   -0.8169   21.8484 H   0  0  0  0  0  0  0  0  0  0  0  0
    7.9050   -0.6100   18.5277 H   0  0  0  0  0  0  0  0  0  0  0  0
    4.8816    1.6839   16.9170 H   0  0  0  0  0  0  0  0  0  0  0  0
    5.1341    0.5216   22.3294 H   0  0  0  0  0  0  0  0  0  0  0  0
    3.1774    2.7801   18.3864 H   0  0  0  0  0  0  0  0  0  0  0  0
    2.3225    3.2210   20.6332 H   0  0  0  0  0  0  0  0  0  0  0  0
  1  2  1  0  0  0  0
  2  3  2  0  0  0  0
  2  6  1  0  0  0  0
  3  4  1  0  0  0  0
  3  5  1  0  0  0  0
  5  8  2  0  0  0  0
  5 27  1  0  0  0  0
  6  7  2  0  0  0  0
  6 28  1  0  0  0  0
  7  8  1  0  0  0  0
  7 12  1  0  0  0  0
  8  9  1  0  0  0  0
  9 10  1  0  0  0  0
 10 11  1  0  0  0  0
 10 29  1  0  0  0  0
 10 30  1  0  0  0  0
 11 12  1  0  0  0  0
 11 31  1  0  0  0  0
 11 32  1  0  0  0  0
 12 13  1  0  0  0  0
 12 33  1  0  0  0  0
 13 14  2  0  0  0  0
 13 15  1  0  0  0  0
 15 16  1  0  0  0  0
 15 34  1  0  0  0  0
 16 17  2  0  0  0  0
 16 20  1  0  0  0  0
 17 18  1  0  0  0  0
 17 35  1  0  0  0  0
 18 19  2  0  0  0  0
 19 24  1  0  0  0  0
 19 36  1  0  0  0  0
 20 21  2  0  0  0  0
 20 24  1  0  0  0  0
 21 22  1  0  0  0  0
 21 37  1  0  0  0  0
 22 23  1  0  0  0  0
 22 26  2  0  0  0  0
 24 25  2  0  0  0  0
 25 26  1  0  0  0  0
 25 38  1  0  0  0  0
 26 39  1  0  0  0  0
M  END
> <compound_name>
MAT-POS-96f51285-5

> <provenance>
{"isomeric_smiles": "c1cc2cncc(c2cc1F)NC(=O)[C@@H]3CCOc4c3cc(c(c4)F)Cl", "inchi": "InChI=1S/C19H13ClF2N2O2/c20-15-6-14-12(3-4-26-18(14)7-16(15)22)19(25)24-17-9-23-8-10-1-2-11(21)5-13(10)17/h1-2,5-9,12H,3-4H2,(H,24,25)/t12-/m1/s1", "inchi_key": "VPVQGEOZXDRIEP-GFCCVEGCSA-N", "fixed_inchi": "InChI=1/C19H13ClF2N2O2/c20-15-6-14-12(3-4-26-18(14)7-16(15)22)19(25)24-17-9-23-8-10-1-2-11(21)5-13(10)17/h1-2,5-9,12H,3-4H2,(H,24,25)/t12-/m1/s1/f/h24H", "fixed_inchikey": "VPVQGEOZXDRIEP-SVSJVYIWNA-N"}

> <data_format>
sdf

$$$$
