LIG(A-305)
  -OEChem-06042511353D

 50 53  0     0  0  0  0  0  0999 V2000
    9.5151    0.9594   21.1906 O   0  0  0  0  0  0  0  0  0  0  0  0
    9.1271   -0.0546   21.7616 C   0  0  0  0  0  0  0  0  0  0  0  0
    8.1290   -0.9996   21.0936 C   0  0  0  0  0  0  0  0  0  0  0  0
    7.3910   -0.3335   20.0446 N   0  0  0  0  0  0  0  0  0  0  0  0
    6.2350    0.3836   20.1187 C   0  0  0  0  0  0  0  0  0  0  0  0
    5.4271    0.7946   21.1697 C   0  0  0  0  0  0  0  0  0  0  0  0
    4.3291    1.5916   20.8648 C   0  0  0  0  0  0  0  0  0  0  0  0
    4.0481    1.9497   19.5478 C   0  0  0  0  0  0  0  0  0  0  0  0
    4.8610    1.5247   18.5028 C   0  0  0  0  0  0  0  0  0  0  0  0
    5.9660    0.7326   18.7997 C   0  0  0  0  0  0  0  0  0  0  0  0
    6.9579    0.2176   17.9977 N   0  0  0  0  0  0  0  0  0  0  0  0
    7.8099   -0.4115   18.7586 N   0  0  0  0  0  0  0  0  0  0  0  0
    9.5521   -0.4027   23.0115 N   0  0  0  0  0  0  0  0  0  0  0  0
   10.6002    0.4003   23.6305 C   0  0  0  0  0  0  0  0  0  0  0  0
   11.8642   -0.3878   23.8424 C   0  0  0  0  0  0  0  0  0  0  0  0
   12.5941   -0.8448   22.7854 C   0  0  0  0  0  0  0  0  0  0  0  0
   13.8611   -1.8599   23.2793 S   0  0  0  0  0  0  0  0  0  0  0  0
   13.4612   -1.6989   24.9483 C   0  0  0  0  0  0  0  0  0  0  0  0
   12.3722   -0.8699   25.0854 C   0  0  0  0  0  0  0  0  0  0  0  0
    9.0511   -1.5277   23.7355 C   0  0  0  0  0  0  0  0  0  0  0  0
    9.6730   -2.7697   23.6285 C   0  0  0  0  0  0  0  0  0  0  0  0
    9.2780   -3.8187   24.4385 C   0  0  0  0  0  0  0  0  0  0  0  0
    7.9982   -1.3656   24.6386 C   0  0  0  0  0  0  0  0  0  0  0  0
    7.6032   -2.4186   25.4446 C   0  0  0  0  0  0  0  0  0  0  0  0
    8.2541   -3.6467   25.3655 C   0  0  0  0  0  0  0  0  0  0  0  0
    8.0091   -4.6777   26.3015 N   0  0  0  0  0  0  0  0  0  0  0  0
    6.8781   -4.8896   27.0485 C   0  0  0  0  0  0  0  0  0  0  0  0
    5.7831   -4.3916   26.7956 O   0  0  0  0  0  0  0  0  0  0  0  0
    7.0671   -5.7067   28.0975 N   0  0  0  0  0  0  0  0  0  0  0  0
    5.9961   -6.0416   29.0206 C   0  0  0  0  0  0  0  0  0  0  0  0
    8.6763   -1.8502   20.6611 H   0  0  0  0  0  0  0  0  0  0  0  0
    7.4211   -1.3660   21.8516 H   0  0  0  0  0  0  0  0  0  0  0  0
    5.6433    0.5058   22.1877 H   0  0  0  0  0  0  0  0  0  0  0  0
    3.6853    1.9379   21.6597 H   0  0  0  0  0  0  0  0  0  0  0  0
    3.1868    2.5659   19.3358 H   0  0  0  0  0  0  0  0  0  0  0  0
    4.6397    1.8032   17.4831 H   0  0  0  0  0  0  0  0  0  0  0  0
   10.8218    1.2582   22.9786 H   0  0  0  0  0  0  0  0  0  0  0  0
   10.2407    0.7633   24.6046 H   0  0  0  0  0  0  0  0  0  0  0  0
   12.3901   -0.5909   21.7557 H   0  0  0  0  0  0  0  0  0  0  0  0
   13.9859   -2.1765   25.7626 H   0  0  0  0  0  0  0  0  0  0  0  0
   11.9432   -0.6090   26.0416 H   0  0  0  0  0  0  0  0  0  0  0  0
   10.4666   -2.9138   22.9102 H   0  0  0  0  0  0  0  0  0  0  0  0
    9.7672   -4.7776   24.3511 H   0  0  0  0  0  0  0  0  0  0  0  0
    7.4904   -0.4150   24.7080 H   0  0  0  0  0  0  0  0  0  0  0  0
    6.7860   -2.2872   26.1383 H   0  0  0  0  0  0  0  0  0  0  0  0
    8.7521   -5.3334   26.4355 H   0  0  0  0  0  0  0  0  0  0  0  0
    7.9751   -6.0975   28.2484 H   0  0  0  0  0  0  0  0  0  0  0  0
    6.3790   -6.7212   29.7962 H   0  0  0  0  0  0  0  0  0  0  0  0
    5.6181   -5.1227   29.4925 H   0  0  0  0  0  0  0  0  0  0  0  0
    5.1800   -6.5345   28.4718 H   0  0  0  0  0  0  0  0  0  0  0  0
  1  2  2  0  0  0  0
  2  3  1  0  0  0  0
  2 13  1  0  0  0  0
  3  4  1  0  0  0  0
  3 31  1  0  0  0  0
  3 32  1  0  0  0  0
  4  5  1  0  0  0  0
  4 12  1  0  0  0  0
  5  6  2  0  0  0  0
  5 10  1  0  0  0  0
  6  7  1  0  0  0  0
  6 33  1  0  0  0  0
  7  8  2  0  0  0  0
  7 34  1  0  0  0  0
  8  9  1  0  0  0  0
  8 35  1  0  0  0  0
  9 10  2  0  0  0  0
  9 36  1  0  0  0  0
 10 11  1  0  0  0  0
 11 12  2  0  0  0  0
 13 14  1  0  0  0  0
 13 20  1  0  0  0  0
 14 15  1  0  0  0  0
 14 37  1  0  0  0  0
 14 38  1  0  0  0  0
 15 16  2  0  0  0  0
 15 19  1  0  0  0  0
 16 17  1  0  0  0  0
 16 39  1  0  0  0  0
 17 18  1  0  0  0  0
 18 19  2  0  0  0  0
 18 40  1  0  0  0  0
 19 41  1  0  0  0  0
 20 21  2  0  0  0  0
 20 23  1  0  0  0  0
 21 22  1  0  0  0  0
 21 42  1  0  0  0  0
 22 25  2  0  0  0  0
 22 43  1  0  0  0  0
 23 24  2  0  0  0  0
 23 44  1  0  0  0  0
 24 25  1  0  0  0  0
 24 45  1  0  0  0  0
 25 26  1  0  0  0  0
 26 27  1  0  0  0  0
 26 46  1  0  0  0  0
 27 28  2  0  0  0  0
 27 29  1  0  0  0  0
 29 30  1  0  0  0  0
 29 47  1  0  0  0  0
 30 48  1  0  0  0  0
 30 49  1  0  0  0  0
 30 50  1  0  0  0  0
M  END
> <compound_name>
ROB-IMP-e811baff-1

> <provenance>
{"isomeric_smiles": "CNC(=O)Nc1ccc(cc1)N(Cc2ccsc2)C(=O)Cn3c4ccccc4nn3", "inchi": "InChI=1S/C21H20N6O2S/c1-22-21(29)23-16-6-8-17(9-7-16)26(12-15-10-11-30-14-15)20(28)13-27-19-5-3-2-4-18(19)24-25-27/h2-11,14H,12-13H2,1H3,(H2,22,23,29)", "inchi_key": "VEPQAUCCEYXBOH-UHFFFAOYSA-N", "fixed_inchi": "InChI=1/C21H20N6O2S/c1-22-21(29)23-16-6-8-17(9-7-16)26(12-15-10-11-30-14-15)20(28)13-27-19-5-3-2-4-18(19)24-25-27/h2-11,14H,12-13H2,1H3,(H2,22,23,29)/f/h22-23H", "fixed_inchikey": "VEPQAUCCEYXBOH-PDJAEHLQNA-N"}

> <data_format>
sdf

$$$$
