LIG(A-305)
  -OEChem-06042511343D

 34 35  0     1  0  0  0  0  0999 V2000
   13.8472   -1.8399   21.2214 Cl  0  0  0  0  0  0  0  0  0  0  0  0
   12.6311   -1.0980   22.2204 C   0  0  0  0  0  0  0  0  0  0  0  0
   13.0040   -0.1441   23.1475 C   0  0  0  0  0  0  0  0  0  0  0  0
   12.0339    0.3749   23.9955 C   0  0  0  0  0  0  0  0  0  0  0  0
   10.7120   -0.0212   23.8704 C   0  0  0  0  0  0  0  0  0  0  0  0
   11.3181   -1.5020   22.0843 C   0  0  0  0  0  0  0  0  0  0  0  0
   10.3380   -0.9381   22.8933 C   0  0  0  0  0  0  0  0  0  0  0  0
    8.8711   -1.2461   22.6162 C   0  0  1  0  0  0  0  0  0  0  0  0
    7.9970   -1.1742   23.8711 C   0  0  0  0  0  0  0  0  0  0  0  0
    8.4151   -0.3161   21.4872 C   0  0  0  0  0  0  0  0  0  0  0  0
    9.0581    0.6850   21.1773 O   0  0  0  0  0  0  0  0  0  0  0  0
    7.2582   -0.6720   20.8821 N   0  0  0  0  0  0  0  0  0  0  0  0
    6.6272    0.0630   19.8651 C   0  0  0  0  0  0  0  0  0  0  0  0
    5.4762    0.8160   20.1521 C   0  0  0  0  0  0  0  0  0  0  0  0
    4.9711    1.0019   21.5591 C   0  0  0  0  0  0  0  0  0  0  0  0
    4.8602    1.4630   19.0881 C   0  0  0  0  0  0  0  0  0  0  0  0
    5.4103    1.3691   17.8231 C   0  0  0  0  0  0  0  0  0  0  0  0
    6.5253    0.6832   17.5482 N   0  0  0  0  0  0  0  0  0  0  0  0
    7.1143    0.0371   18.5592 C   0  0  0  0  0  0  0  0  0  0  0  0
   14.0286    0.1913   23.2116 H   0  0  0  0  0  0  0  0  0  0  0  0
   12.3113    1.0901   24.7556 H   0  0  0  0  0  0  0  0  0  0  0  0
    9.9657    0.3854   24.5369 H   0  0  0  0  0  0  0  0  0  0  0  0
   11.0537   -2.2520   21.3535 H   0  0  0  0  0  0  0  0  0  0  0  0
    8.8160   -2.2767   22.2355 H   0  0  0  0  0  0  0  0  0  0  0  0
    6.9546   -1.4053   23.6063 H   0  0  0  0  0  0  0  0  0  0  0  0
    8.3576   -1.9038   24.6112 H   0  0  0  0  0  0  0  0  0  0  0  0
    8.0509   -0.1619   24.2979 H   0  0  0  0  0  0  0  0  0  0  0  0
    6.8207   -1.5202   21.1808 H   0  0  0  0  0  0  0  0  0  0  0  0
    5.7443    1.4979   22.1642 H   0  0  0  0  0  0  0  0  0  0  0  0
    4.0633    1.6229   21.5436 H   0  0  0  0  0  0  0  0  0  0  0  0
    4.7365    0.0204   21.9969 H   0  0  0  0  0  0  0  0  0  0  0  0
    3.9583    2.0352   19.2480 H   0  0  0  0  0  0  0  0  0  0  0  0
    4.9118    1.8782   17.0114 H   0  0  0  0  0  0  0  0  0  0  0  0
    8.0094   -0.5316   18.3548 H   0  0  0  0  0  0  0  0  0  0  0  0
  1  2  1  0  0  0  0
  2  3  2  0  0  0  0
  2  6  1  0  0  0  0
  3  4  1  0  0  0  0
  3 20  1  0  0  0  0
  4  5  2  0  0  0  0
  4 21  1  0  0  0  0
  5  7  1  0  0  0  0
  5 22  1  0  0  0  0
  6  7  2  0  0  0  0
  6 23  1  0  0  0  0
  7  8  1  0  0  0  0
  8  9  1  0  0  0  0
  8 10  1  0  0  0  0
  8 24  1  0  0  0  0
  9 25  1  0  0  0  0
  9 26  1  0  0  0  0
  9 27  1  0  0  0  0
 10 11  2  0  0  0  0
 10 12  1  0  0  0  0
 12 13  1  0  0  0  0
 12 28  1  0  0  0  0
 13 14  2  0  0  0  0
 13 19  1  0  0  0  0
 14 15  1  0  0  0  0
 14 16  1  0  0  0  0
 15 29  1  0  0  0  0
 15 30  1  0  0  0  0
 15 31  1  0  0  0  0
 16 17  2  0  0  0  0
 16 32  1  0  0  0  0
 17 18  1  0  0  0  0
 17 33  1  0  0  0  0
 18 19  2  0  0  0  0
 19 34  1  0  0  0  0
M  END
> <compound_name>
TRY-UNI-714a760b-18

> <provenance>
{"isomeric_smiles": "Cc1ccncc1NC(=O)[C@H](C)c2cccc(c2)Cl", "inchi": "InChI=1S/C15H15ClN2O/c1-10-6-7-17-9-14(10)18-15(19)11(2)12-4-3-5-13(16)8-12/h3-9,11H,1-2H3,(H,18,19)/t11-/m1/s1", "inchi_key": "WNGGAWMEODUSED-LLVKDONJSA-N", "fixed_inchi": "InChI=1/C15H15ClN2O/c1-10-6-7-17-9-14(10)18-15(19)11(2)12-4-3-5-13(16)8-12/h3-9,11H,1-2H3,(H,18,19)/t11-/m1/s1/f/h18H", "fixed_inchikey": "WNGGAWMEODUSED-GZURDMDWNA-N"}

> <data_format>
sdf

$$$$
