LIG(A-305)
  -OEChem-06042511373D

 41 44  0     1  0  0  0  0  0999 V2000
    9.1176    1.0017   21.0674 O   0  0  0  0  0  0  0  0  0  0  0  0
    8.7156    0.0008   21.6255 C   0  0  0  0  0  0  0  0  0  0  0  0
    9.3976   -0.5192   22.8835 C   0  0  2  0  0  0  0  0  0  0  0  0
   10.8956   -0.2543   22.8524 C   0  0  0  0  0  0  0  0  0  0  0  0
   11.4587    0.7067   23.6833 C   0  0  0  0  0  0  0  0  0  0  0  0
   12.8208    0.9555   23.6552 C   0  0  0  0  0  0  0  0  0  0  0  0
   13.6466    0.2334   22.8102 C   0  0  0  0  0  0  0  0  0  0  0  0
   11.7225   -0.9705   21.9944 C   0  0  0  0  0  0  0  0  0  0  0  0
   13.0825   -0.7256   21.9953 C   0  0  0  0  0  0  0  0  0  0  0  0
   14.1124   -1.6877   20.9753 Cl  0  0  0  0  0  0  0  0  0  0  0  0
    7.6195   -0.6762   21.1636 N   0  0  0  0  0  0  0  0  0  0  0  0
    7.0014   -1.8721   21.7807 C   0  0  0  0  0  0  0  0  0  0  0  0
    7.5135   -2.1440   23.1837 C   0  0  0  0  0  0  0  0  0  0  0  0
    9.0255   -1.9592   23.2446 C   0  0  0  0  0  0  0  0  0  0  0  0
    6.8755   -0.1112   20.0816 C   0  0  0  0  0  0  0  0  0  0  0  0
    5.7415    0.7310   20.2837 C   0  0  0  0  0  0  0  0  0  0  0  0
    5.2306    1.0861   21.5607 C   0  0  0  0  0  0  0  0  0  0  0  0
    4.1267    1.8822   21.6787 C   0  0  0  0  0  0  0  0  0  0  0  0
    3.4867    2.3772   20.5507 C   0  0  0  0  0  0  0  0  0  0  0  0
    3.9576    2.0911   19.3017 C   0  0  0  0  0  0  0  0  0  0  0  0
    5.0985    1.2689   19.1327 C   0  0  0  0  0  0  0  0  0  0  0  0
    5.6524    0.9608   17.8636 C   0  0  0  0  0  0  0  0  0  0  0  0
    6.7223    0.1927   17.6836 N   0  0  0  0  0  0  0  0  0  0  0  0
    7.2954   -0.3303   18.7756 C   0  0  0  0  0  0  0  0  0  0  0  0
    9.0071    0.0984   23.7058 H   0  0  0  0  0  0  0  0  0  0  0  0
   10.8274    1.2654   24.3582 H   0  0  0  0  0  0  0  0  0  0  0  0
   13.2411    1.7168   24.2958 H   0  0  0  0  0  0  0  0  0  0  0  0
   14.7107    0.4174   22.7897 H   0  0  0  0  0  0  0  0  0  0  0  0
   11.3046   -1.7135   21.3314 H   0  0  0  0  0  0  0  0  0  0  0  0
    5.9130   -1.7200   21.8277 H   0  0  0  0  0  0  0  0  0  0  0  0
    7.2227   -2.7462   21.1507 H   0  0  0  0  0  0  0  0  0  0  0  0
    7.0347   -1.4455   23.8857 H   0  0  0  0  0  0  0  0  0  0  0  0
    7.2633   -3.1772   23.4666 H   0  0  0  0  0  0  0  0  0  0  0  0
    9.3778   -2.1809   24.2628 H   0  0  0  0  0  0  0  0  0  0  0  0
    9.5046   -2.6475   22.5328 H   0  0  0  0  0  0  0  0  0  0  0  0
    5.7219    0.7216   22.4508 H   0  0  0  0  0  0  0  0  0  0  0  0
    3.7481    2.1290   22.6596 H   0  0  0  0  0  0  0  0  0  0  0  0
    2.6077    2.9946   20.6623 H   0  0  0  0  0  0  0  0  0  0  0  0
    3.4558    2.4950   18.4349 H   0  0  0  0  0  0  0  0  0  0  0  0
    5.1748    1.3764   16.9886 H   0  0  0  0  0  0  0  0  0  0  0  0
    8.1510   -0.9728   18.6292 H   0  0  0  0  0  0  0  0  0  0  0  0
  1  2  2  0  0  0  0
  2  3  1  0  0  0  0
  2 11  1  0  0  0  0
  3  4  1  0  0  0  0
  3 14  1  0  0  0  0
  3 25  1  0  0  0  0
  4  5  2  0  0  0  0
  4  8  1  0  0  0  0
  5  6  1  0  0  0  0
  5 26  1  0  0  0  0
  6  7  2  0  0  0  0
  6 27  1  0  0  0  0
  7  9  1  0  0  0  0
  7 28  1  0  0  0  0
  8  9  2  0  0  0  0
  8 29  1  0  0  0  0
  9 10  1  0  0  0  0
 11 12  1  0  0  0  0
 11 15  1  0  0  0  0
 12 13  1  0  0  0  0
 12 30  1  0  0  0  0
 12 31  1  0  0  0  0
 13 14  1  0  0  0  0
 13 32  1  0  0  0  0
 13 33  1  0  0  0  0
 14 34  1  0  0  0  0
 14 35  1  0  0  0  0
 15 16  2  0  0  0  0
 15 24  1  0  0  0  0
 16 17  1  0  0  0  0
 16 21  1  0  0  0  0
 17 18  2  0  0  0  0
 17 36  1  0  0  0  0
 18 19  1  0  0  0  0
 18 37  1  0  0  0  0
 19 20  2  0  0  0  0
 19 38  1  0  0  0  0
 20 21  1  0  0  0  0
 20 39  1  0  0  0  0
 21 22  2  0  0  0  0
 22 23  1  0  0  0  0
 22 40  1  0  0  0  0
 23 24  2  0  0  0  0
 24 41  1  0  0  0  0
M  END
> <compound_name>
PET-UNK-c9c1e0d8-3

> <provenance>
{"isomeric_smiles": "c1ccc2c(c1)cncc2N3CCC[C@H](C3=O)c4cccc(c4)Cl", "inchi": "InChI=1S/C20H17ClN2O/c21-16-7-3-6-14(11-16)18-9-4-10-23(20(18)24)19-13-22-12-15-5-1-2-8-17(15)19/h1-3,5-8,11-13,18H,4,9-10H2/t18-/m0/s1", "inchi_key": "WATOKUBUEBNRTN-SFHVURJKSA-N", "fixed_inchi": "InChI=1/C20H17ClN2O/c21-16-7-3-6-14(11-16)18-9-4-10-23(20(18)24)19-13-22-12-15-5-1-2-8-17(15)19/h1-3,5-8,11-13,18H,4,9-10H2/t18-/m0/s1", "fixed_inchikey": "WATOKUBUEBNRTN-SFHVURJKNA-N"}

> <data_format>
sdf

$$$$
