LIG(A-306)
  -OEChem-06042511383D

 38 41  0     1  0  0  0  0  0999 V2000
    9.3226    1.4676   21.1689 O   0  0  0  0  0  0  0  0  0  0  0  0
    8.8931    0.4093   21.6030 C   0  0  0  0  0  0  0  0  0  0  0  0
    9.4123   -0.3636   22.8099 C   0  0  2  0  0  0  0  0  0  0  0  0
   10.9154   -0.2112   22.9752 C   0  0  0  0  0  0  0  0  0  0  0  0
   11.4432    0.6814   23.9023 C   0  0  0  0  0  0  0  0  0  0  0  0
   12.8133    0.8747   23.9977 C   0  0  0  0  0  0  0  0  0  0  0  0
   13.6766    0.1864   23.1570 C   0  0  0  0  0  0  0  0  0  0  0  0
   11.7838   -0.9265   22.1566 C   0  0  0  0  0  0  0  0  0  0  0  0
   13.1428   -0.6972   22.2400 C   0  0  0  0  0  0  0  0  0  0  0  0
   14.1988   -1.4690   21.0883 Cl  0  0  0  0  0  0  0  0  0  0  0  0
    7.8507   -0.3047   21.0762 N   0  0  0  0  0  0  0  0  0  0  0  0
    7.6405   -1.5976   21.7485 C   0  0  0  0  0  0  0  0  0  0  0  0
    8.9502   -1.8042   22.4977 C   0  0  0  0  0  0  0  0  0  0  0  0
    7.0177    0.1284   19.9972 C   0  0  0  0  0  0  0  0  0  0  0  0
    5.8608    0.9247   20.2430 C   0  0  0  0  0  0  0  0  0  0  0  0
    5.3960    1.2739   21.5388 C   0  0  0  0  0  0  0  0  0  0  0  0
    4.3110    2.0890   21.7024 C   0  0  0  0  0  0  0  0  0  0  0  0
    3.6360    2.5991   20.6002 C   0  0  0  0  0  0  0  0  0  0  0  0
    4.0369    2.2860   19.3334 C   0  0  0  0  0  0  0  0  0  0  0  0
    5.1547    1.4408   19.1177 C   0  0  0  0  0  0  0  0  0  0  0  0
    5.6356    1.1037   17.8259 C   0  0  0  0  0  0  0  0  0  0  0  0
    6.7025    0.3464   17.6031 N   0  0  0  0  0  0  0  0  0  0  0  0
    7.3665   -0.1187   18.6723 C   0  0  0  0  0  0  0  0  0  0  0  0
    8.9042   -0.0094   23.7188 H   0  0  0  0  0  0  0  0  0  0  0  0
   10.7793    1.2295   24.5543 H   0  0  0  0  0  0  0  0  0  0  0  0
   13.2098    1.5635   24.7290 H   0  0  0  0  0  0  0  0  0  0  0  0
   14.7440    0.3387   23.2188 H   0  0  0  0  0  0  0  0  0  0  0  0
   11.3973   -1.6563   21.4606 H   0  0  0  0  0  0  0  0  0  0  0  0
    6.7895   -1.5490   22.4438 H   0  0  0  0  0  0  0  0  0  0  0  0
    7.4710   -2.4017   21.0173 H   0  0  0  0  0  0  0  0  0  0  0  0
    8.7886   -2.3755   23.4237 H   0  0  0  0  0  0  0  0  0  0  0  0
    9.6859   -2.3264   21.8684 H   0  0  0  0  0  0  0  0  0  0  0  0
    5.9078    0.8892   22.4086 H   0  0  0  0  0  0  0  0  0  0  0  0
    3.9752    2.3390   22.6980 H   0  0  0  0  0  0  0  0  0  0  0  0
    2.7863    3.2493   20.7471 H   0  0  0  0  0  0  0  0  0  0  0  0
    3.4975    2.6859   18.4874 H   0  0  0  0  0  0  0  0  0  0  0  0
    5.0998    1.4874   16.9703 H   0  0  0  0  0  0  0  0  0  0  0  0
    8.2374   -0.7313   18.4913 H   0  0  0  0  0  0  0  0  0  0  0  0
  1  2  2  0  0  0  0
  2  3  1  0  0  0  0
  2 11  1  0  0  0  0
  3  4  1  0  0  0  0
  3 13  1  0  0  0  0
  3 24  1  0  0  0  0
  4  5  2  0  0  0  0
  4  8  1  0  0  0  0
  5  6  1  0  0  0  0
  5 25  1  0  0  0  0
  6  7  2  0  0  0  0
  6 26  1  0  0  0  0
  7  9  1  0  0  0  0
  7 27  1  0  0  0  0
  8  9  2  0  0  0  0
  8 28  1  0  0  0  0
  9 10  1  0  0  0  0
 11 12  1  0  0  0  0
 11 14  1  0  0  0  0
 12 13  1  0  0  0  0
 12 29  1  0  0  0  0
 12 30  1  0  0  0  0
 13 31  1  0  0  0  0
 13 32  1  0  0  0  0
 14 15  2  0  0  0  0
 14 23  1  0  0  0  0
 15 16  1  0  0  0  0
 15 20  1  0  0  0  0
 16 17  2  0  0  0  0
 16 33  1  0  0  0  0
 17 18  1  0  0  0  0
 17 34  1  0  0  0  0
 18 19  2  0  0  0  0
 18 35  1  0  0  0  0
 19 20  1  0  0  0  0
 19 36  1  0  0  0  0
 20 21  2  0  0  0  0
 21 22  1  0  0  0  0
 21 37  1  0  0  0  0
 22 23  2  0  0  0  0
 23 38  1  0  0  0  0
M  END
> <compound_name>
PET-UNK-c9c1e0d8-4

> <provenance>
{"isomeric_smiles": "c1ccc2c(c1)cncc2N3CC[C@H](C3=O)c4cccc(c4)Cl", "inchi": "InChI=1S/C19H15ClN2O/c20-15-6-3-5-13(10-15)17-8-9-22(19(17)23)18-12-21-11-14-4-1-2-7-16(14)18/h1-7,10-12,17H,8-9H2/t17-/m0/s1", "inchi_key": "RNKBROMGPBKNFK-KRWDZBQOSA-N", "fixed_inchi": "InChI=1/C19H15ClN2O/c20-15-6-3-5-13(10-15)17-8-9-22(19(17)23)18-12-21-11-14-4-1-2-7-16(14)18/h1-7,10-12,17H,8-9H2/t17-/m0/s1", "fixed_inchikey": "RNKBROMGPBKNFK-KRWDZBQONA-N"}

> <data_format>
sdf

$$$$
