LIG(A-306)
  -OEChem-06042511423D

 53 57  0     1  0  0  0  0  0999 V2000
    9.0607    1.2531   21.2719 O   0  0  0  0  0  0  0  0  0  0  0  0
    8.6116    0.1701   21.6455 C   0  0  0  0  0  0  0  0  0  0  0  0
    7.5314   -0.4130   21.0797 N   0  0  0  0  0  0  0  0  0  0  0  0
    6.7483    0.0858   20.0203 C   0  0  0  0  0  0  0  0  0  0  0  0
    5.5888    0.8605   20.3383 C   0  0  0  0  0  0  0  0  0  0  0  0
    5.0983    1.0438   21.6603 C   0  0  0  0  0  0  0  0  0  0  0  0
    3.9969    1.8168   21.8993 C   0  0  0  0  0  0  0  0  0  0  0  0
    3.3350    2.4493   20.8535 C   0  0  0  0  0  0  0  0  0  0  0  0
    3.7615    2.2959   19.5647 C   0  0  0  0  0  0  0  0  0  0  0  0
    4.8899    1.4892   19.2705 C   0  0  0  0  0  0  0  0  0  0  0  0
    5.3694    1.2778   17.9524 C   0  0  0  0  0  0  0  0  0  0  0  0
    6.4289    0.5373   17.6546 N   0  0  0  0  0  0  0  0  0  0  0  0
    7.0929   -0.0311   18.6727 C   0  0  0  0  0  0  0  0  0  0  0  0
    9.2083   -0.6010   22.8246 C   0  0  1  0  0  0  0  0  0  0  0  0
   10.6869   -0.2913   22.9050 C   0  0  0  0  0  0  0  0  0  0  0  0
   11.1412    0.8233   23.6216 C   0  0  0  0  0  0  0  0  0  0  0  0
   12.4998    1.1466   23.6200 C   0  0  0  0  0  0  0  0  0  0  0  0
   13.4042    0.3623   22.9270 C   0  0  0  0  0  0  0  0  0  0  0  0
   11.6113   -1.0928   22.2389 C   0  0  0  0  0  0  0  0  0  0  0  0
   12.9489   -0.7514   22.2545 C   0  0  0  0  0  0  0  0  0  0  0  0
   14.0819   -1.7342   21.3694 Cl  0  0  0  0  0  0  0  0  0  0  0  0
    8.5252   -0.1852   24.1268 C   0  0  0  0  0  0  0  0  0  0  0  0
    8.9099    1.1741   24.5196 N   0  0  0  0  0  0  0  0  0  0  0  0
   10.2088    1.6271   24.4307 C   0  0  0  0  0  0  0  0  0  0  0  0
   10.5569    2.6779   24.9369 O   0  0  0  0  0  0  0  0  0  0  0  0
    8.0022    1.7881   25.4718 C   0  0  0  0  0  0  0  0  0  0  0  0
    7.4409    3.1511   25.0976 C   0  0  0  0  0  0  0  0  0  0  0  0
    6.7281    3.7686   25.8888 O   0  0  0  0  0  0  0  0  0  0  0  0
    7.7907    3.6444   23.9010 N   0  0  0  0  0  0  0  0  0  0  0  0
    6.8243    4.0155   22.8670 C   0  0  0  0  0  0  0  0  0  0  0  0
    7.0686    5.2460   22.0791 C   0  0  0  0  0  0  0  0  0  0  0  0
    5.9736    5.2101   23.0821 C   0  0  0  0  0  0  0  0  0  0  0  0
    7.2573   -1.2983   21.4556 H   0  0  0  0  0  0  0  0  0  0  0  0
    5.6031    0.5658   22.4868 H   0  0  0  0  0  0  0  0  0  0  0  0
    3.6373    1.9372   22.9105 H   0  0  0  0  0  0  0  0  0  0  0  0
    2.4748    3.0683   21.0618 H   0  0  0  0  0  0  0  0  0  0  0  0
    3.2350    2.7932   18.7634 H   0  0  0  0  0  0  0  0  0  0  0  0
    4.8379    1.7500   17.1394 H   0  0  0  0  0  0  0  0  0  0  0  0
    7.9616   -0.6253   18.4306 H   0  0  0  0  0  0  0  0  0  0  0  0
    9.0652   -1.6799   22.6652 H   0  0  0  0  0  0  0  0  0  0  0  0
   12.8461    2.0137   24.1628 H   0  0  0  0  0  0  0  0  0  0  0  0
   14.4531    0.6192   22.9130 H   0  0  0  0  0  0  0  0  0  0  0  0
   11.2831   -1.9770   21.7128 H   0  0  0  0  0  0  0  0  0  0  0  0
    7.4348   -0.2229   23.9873 H   0  0  0  0  0  0  0  0  0  0  0  0
    8.8173   -0.8847   24.9239 H   0  0  0  0  0  0  0  0  0  0  0  0
    7.1521    1.1041   25.6109 H   0  0  0  0  0  0  0  0  0  0  0  0
    8.5427    1.8998   26.4234 H   0  0  0  0  0  0  0  0  0  0  0  0
    8.7638    3.7652   23.7048 H   0  0  0  0  0  0  0  0  0  0  0  0
    6.3530    3.1838   22.3227 H   0  0  0  0  0  0  0  0  0  0  0  0
    7.9679    5.8506   22.2678 H   0  0  0  0  0  0  0  0  0  0  0  0
    6.8306    5.2680   21.0054 H   0  0  0  0  0  0  0  0  0  0  0  0
    4.9245    5.2053   22.7514 H   0  0  0  0  0  0  0  0  0  0  0  0
    6.0617    5.7879   24.0139 H   0  0  0  0  0  0  0  0  0  0  0  0
  1  2  2  0  0  0  0
  2  3  1  0  0  0  0
  2 14  1  0  0  0  0
  3  4  1  0  0  0  0
  3 33  1  0  0  0  0
  4  5  2  0  0  0  0
  4 13  1  0  0  0  0
  5  6  1  0  0  0  0
  5 10  1  0  0  0  0
  6  7  2  0  0  0  0
  6 34  1  0  0  0  0
  7  8  1  0  0  0  0
  7 35  1  0  0  0  0
  8  9  2  0  0  0  0
  8 36  1  0  0  0  0
  9 10  1  0  0  0  0
  9 37  1  0  0  0  0
 10 11  2  0  0  0  0
 11 12  1  0  0  0  0
 11 38  1  0  0  0  0
 12 13  2  0  0  0  0
 13 39  1  0  0  0  0
 14 15  1  0  0  0  0
 14 22  1  0  0  0  0
 14 40  1  0  0  0  0
 15 16  2  0  0  0  0
 15 19  1  0  0  0  0
 16 17  1  0  0  0  0
 16 24  1  0  0  0  0
 17 18  2  0  0  0  0
 17 41  1  0  0  0  0
 18 20  1  0  0  0  0
 18 42  1  0  0  0  0
 19 20  2  0  0  0  0
 19 43  1  0  0  0  0
 20 21  1  0  0  0  0
 22 23  1  0  0  0  0
 22 44  1  0  0  0  0
 22 45  1  0  0  0  0
 23 24  1  0  0  0  0
 23 26  1  0  0  0  0
 24 25  2  0  0  0  0
 26 27  1  0  0  0  0
 26 46  1  0  0  0  0
 26 47  1  0  0  0  0
 27 28  2  0  0  0  0
 27 29  1  0  0  0  0
 29 30  1  0  0  0  0
 29 48  1  0  0  0  0
 30 31  1  0  0  0  0
 30 32  1  0  0  0  0
 30 49  1  0  0  0  0
 31 32  1  0  0  0  0
 31 50  1  0  0  0  0
 31 51  1  0  0  0  0
 32 52  1  0  0  0  0
 32 53  1  0  0  0  0
M  END
> <compound_name>
EDJ-MED-43f8f7d6-4

> <provenance>
{"isomeric_smiles": "c1ccc2c(c1)cncc2NC(=O)[C@@H]3CN(C(=O)c4c3cc(cc4)Cl)CC(=O)NC5CC5", "inchi": "InChI=1S/C24H21ClN4O3/c25-15-5-8-18-19(9-15)20(12-29(24(18)32)13-22(30)27-16-6-7-16)23(31)28-21-11-26-10-14-3-1-2-4-17(14)21/h1-5,8-11,16,20H,6-7,12-13H2,(H,27,30)(H,28,31)/t20-/m1/s1", "inchi_key": "PAAVFAOBFJLLJO-HXUWFJFHSA-N", "fixed_inchi": "InChI=1/C24H21ClN4O3/c25-15-5-8-18-19(9-15)20(12-29(24(18)32)13-22(30)27-16-6-7-16)23(31)28-21-11-26-10-14-3-1-2-4-17(14)21/h1-5,8-11,16,20H,6-7,12-13H2,(H,27,30)(H,28,31)/t20-/m1/s1/f/h27-28H", "fixed_inchikey": "PAAVFAOBFJLLJO-VKDJAMJGNA-N"}

> <data_format>
sdf

$$$$
