LIG(A-305)
  -OEChem-06042511313D

 37 39  0     0  0  0  0  0  0999 V2000
    6.4203    0.6672   17.3516 N   0  0  0  0  0  0  0  0  0  0  0  0
    9.3847   -0.3799   23.3944 N   0  0  0  0  0  0  0  0  0  0  0  0
    5.2875    0.9062   19.9077 C   0  0  0  0  0  0  0  0  0  0  0  0
   12.8678    0.3669   24.2662 C   0  0  0  0  0  0  0  0  0  0  0  0
    7.5088    0.7011   24.1806 O   0  0  0  0  0  0  0  0  0  0  0  0
    8.7258    0.5421   24.1825 C   0  0  0  0  0  0  0  0  0  0  0  0
    4.7745    1.5992   18.8187 C   0  0  0  0  0  0  0  0  0  0  0  0
    8.1436   -0.2779   21.3165 C   0  0  0  0  0  0  0  0  0  0  0  0
    6.3765    0.0522   19.6716 C   0  0  0  0  0  0  0  0  0  0  0  0
    6.9024   -0.0339   18.3836 C   0  0  0  0  0  0  0  0  0  0  0  0
   11.4928    0.2670   24.3213 C   0  0  0  0  0  0  0  0  0  0  0  0
   12.8596   -1.0601   22.3632 C   0  0  0  0  0  0  0  0  0  0  0  0
    9.5668    1.4090   25.0884 C   0  0  0  0  0  0  0  0  0  0  0  0
   13.5527   -0.2811   23.2592 C   0  0  0  0  0  0  0  0  0  0  0  0
   11.4836   -1.1720   22.3973 C   0  0  0  0  0  0  0  0  0  0  0  0
    4.7426    1.1432   21.2937 C   0  0  0  0  0  0  0  0  0  0  0  0
    6.9765   -0.6429   20.7446 N   0  0  0  0  0  0  0  0  0  0  0  0
    8.7936    0.7111   20.9935 O   0  0  0  0  0  0  0  0  0  0  0  0
   10.8638    0.8720   25.3783 O   0  0  0  0  0  0  0  0  0  0  0  0
    8.5836   -1.1659   22.4645 C   0  0  0  0  0  0  0  0  0  0  0  0
    5.3694    1.4662   17.5827 C   0  0  0  0  0  0  0  0  0  0  0  0
   10.7877   -0.4610   23.3713 C   0  0  0  0  0  0  0  0  0  0  0  0
   13.7535   -1.9661   21.1732 Cl  0  0  0  0  0  0  0  0  0  0  0  0
   13.4025    0.9466   25.0041 H   0  0  0  0  0  0  0  0  0  0  0  0
    3.9132    2.2394   18.9401 H   0  0  0  0  0  0  0  0  0  0  0  0
    7.7373   -0.6969   18.2110 H   0  0  0  0  0  0  0  0  0  0  0  0
    9.6992    2.3876   24.6038 H   0  0  0  0  0  0  0  0  0  0  0  0
    9.0277    1.5402   26.0383 H   0  0  0  0  0  0  0  0  0  0  0  0
   14.6244   -0.1773   23.1754 H   0  0  0  0  0  0  0  0  0  0  0  0
   10.9607   -1.7950   21.6867 H   0  0  0  0  0  0  0  0  0  0  0  0
    3.9437    1.8981   21.2501 H   0  0  0  0  0  0  0  0  0  0  0  0
    4.3364    0.2025   21.6937 H   0  0  0  0  0  0  0  0  0  0  0  0
    5.5504    1.5017   21.9488 H   0  0  0  0  0  0  0  0  0  0  0  0
    6.5099   -1.4522   21.1013 H   0  0  0  0  0  0  0  0  0  0  0  0
    7.6987   -1.5621   22.9840 H   0  0  0  0  0  0  0  0  0  0  0  0
    9.1846   -2.0009   22.0750 H   0  0  0  0  0  0  0  0  0  0  0  0
    4.9678    2.0354   16.7574 H   0  0  0  0  0  0  0  0  0  0  0  0
  1 10  1  0  0  0  0
  1 21  2  0  0  0  0
  2  6  1  0  0  0  0
  2 20  1  0  0  0  0
  2 22  1  0  0  0  0
  3  7  2  0  0  0  0
  3  9  1  0  0  0  0
  3 16  1  0  0  0  0
  4 11  2  0  0  0  0
  4 14  1  0  0  0  0
  4 24  1  0  0  0  0
  5  6  2  0  0  0  0
  6 13  1  0  0  0  0
  7 21  1  0  0  0  0
  7 25  1  0  0  0  0
  8 17  1  0  0  0  0
  8 18  2  0  0  0  0
  8 20  1  0  0  0  0
  9 10  2  0  0  0  0
  9 17  1  0  0  0  0
 10 26  1  0  0  0  0
 11 19  1  0  0  0  0
 11 22  1  0  0  0  0
 12 14  2  0  0  0  0
 12 15  1  0  0  0  0
 12 23  1  0  0  0  0
 13 19  1  0  0  0  0
 13 27  1  0  0  0  0
 13 28  1  0  0  0  0
 14 29  1  0  0  0  0
 15 22  2  0  0  0  0
 15 30  1  0  0  0  0
 16 31  1  0  0  0  0
 16 32  1  0  0  0  0
 16 33  1  0  0  0  0
 17 34  1  0  0  0  0
 20 35  1  0  0  0  0
 20 36  1  0  0  0  0
 21 37  1  0  0  0  0
M  END
> <compound_name>
BAR-COM-0f94fc3d-48

> <provenance>
{"isomeric_smiles": "Cc1ccncc1NC(=O)CN2c3cc(ccc3OCC2=O)Cl", "inchi": "InChI=1S/C16H14ClN3O3/c1-10-4-5-18-7-12(10)19-15(21)8-20-13-6-11(17)2-3-14(13)23-9-16(20)22/h2-7H,8-9H2,1H3,(H,19,21)", "inchi_key": "SHDRXRMTUQTXFE-UHFFFAOYSA-N", "fixed_inchi": "InChI=1/C16H14ClN3O3/c1-10-4-5-18-7-12(10)19-15(21)8-20-13-6-11(17)2-3-14(13)23-9-16(20)22/h2-7H,8-9H2,1H3,(H,19,21)/f/h19H", "fixed_inchikey": "SHDRXRMTUQTXFE-LILDFLRNNA-N"}

> <data_format>
sdf

$$$$
