LIG(A-305)
  -OEChem-06042511353D

 35 37  0     1  0  0  0  0  0999 V2000
    9.7857    0.8842   21.2281 O   0  0  0  0  0  0  0  0  0  0  0  0
    9.2857   -0.1728   21.6039 C   0  0  0  0  0  0  0  0  0  0  0  0
    8.1147   -0.6577   21.1548 N   0  0  0  0  0  0  0  0  0  0  0  0
    7.2898   -0.1005   20.1518 C   0  0  0  0  0  0  0  0  0  0  0  0
    7.6749   -0.0774   18.8098 C   0  0  0  0  0  0  0  0  0  0  0  0
    6.9129    0.4318   17.8359 N   0  0  0  0  0  0  0  0  0  0  0  0
    5.7219    0.9308   18.1859 C   0  0  0  0  0  0  0  0  0  0  0  0
    5.2499    0.9496   19.4828 C   0  0  0  0  0  0  0  0  0  0  0  0
    6.0368    0.4385   20.5058 C   0  0  0  0  0  0  0  0  0  0  0  0
    5.5777    0.5133   21.9418 C   0  0  0  0  0  0  0  0  0  0  0  0
    9.9646   -1.0740   22.6099 C   0  0  0  0  0  0  0  0  0  0  0  0
   11.4556   -0.7581   22.8870 C   0  0  1  0  0  0  0  0  0  0  0  0
   11.8485    0.3598   23.8582 C   0  0  0  0  0  0  0  0  0  0  0  0
   12.6635   -0.3694   24.9141 C   0  0  0  0  0  0  0  0  0  0  0  0
   13.4405   -1.4253   24.1540 C   0  0  0  0  0  0  0  0  0  0  0  0
   12.4795   -1.8471   23.0429 C   0  0  2  0  0  0  0  0  0  0  0  0
   12.4456   -1.0040   21.7960 C   0  0  0  0  0  0  0  0  0  0  0  0
    7.7924   -1.5052   21.5767 H   0  0  0  0  0  0  0  0  0  0  0  0
    8.6366   -0.4916   18.5451 H   0  0  0  0  0  0  0  0  0  0  0  0
    5.0941    1.3423   17.4094 H   0  0  0  0  0  0  0  0  0  0  0  0
    4.2746    1.3594   19.7003 H   0  0  0  0  0  0  0  0  0  0  0  0
    6.2825    1.1278   22.5211 H   0  0  0  0  0  0  0  0  0  0  0  0
    4.5763    0.9666   21.9833 H   0  0  0  0  0  0  0  0  0  0  0  0
    5.5392   -0.5003   22.3676 H   0  0  0  0  0  0  0  0  0  0  0  0
    9.4182   -0.9926   23.5611 H   0  0  0  0  0  0  0  0  0  0  0  0
    9.9004   -2.1070   22.2373 H   0  0  0  0  0  0  0  0  0  0  0  0
   12.4537    1.1269   23.3528 H   0  0  0  0  0  0  0  0  0  0  0  0
   10.9576    0.8287   24.3014 H   0  0  0  0  0  0  0  0  0  0  0  0
   13.3497    0.3255   25.4202 H   0  0  0  0  0  0  0  0  0  0  0  0
   12.0015   -0.8375   25.6576 H   0  0  0  0  0  0  0  0  0  0  0  0
   14.3665   -1.0055   23.7342 H   0  0  0  0  0  0  0  0  0  0  0  0
   13.6863   -2.2771   24.8052 H   0  0  0  0  0  0  0  0  0  0  0  0
   12.1600   -2.8984   22.9898 H   0  0  0  0  0  0  0  0  0  0  0  0
   13.2454   -0.2734   21.6047 H   0  0  0  0  0  0  0  0  0  0  0  0
   12.1158   -1.4444   20.8435 H   0  0  0  0  0  0  0  0  0  0  0  0
  1  2  2  0  0  0  0
  2  3  1  0  0  0  0
  2 11  1  0  0  0  0
  3  4  1  0  0  0  0
  3 18  1  0  0  0  0
  4  5  2  0  0  0  0
  4  9  1  0  0  0  0
  5  6  1  0  0  0  0
  5 19  1  0  0  0  0
  6  7  2  0  0  0  0
  7  8  1  0  0  0  0
  7 20  1  0  0  0  0
  8  9  2  0  0  0  0
  8 21  1  0  0  0  0
  9 10  1  0  0  0  0
 10 22  1  0  0  0  0
 10 23  1  0  0  0  0
 10 24  1  0  0  0  0
 11 12  1  0  0  0  0
 11 25  1  0  0  0  0
 11 26  1  0  0  0  0
 12 13  1  0  0  0  0
 12 16  1  0  0  0  0
 12 17  1  0  0  0  0
 13 14  1  0  0  0  0
 13 27  1  0  0  0  0
 13 28  1  0  0  0  0
 14 15  1  0  0  0  0
 14 29  1  0  0  0  0
 14 30  1  0  0  0  0
 15 16  1  0  0  0  0
 15 31  1  0  0  0  0
 15 32  1  0  0  0  0
 16 17  1  0  0  0  0
 16 33  1  0  0  0  0
 17 34  1  0  0  0  0
 17 35  1  0  0  0  0
M  END
> <compound_name>
MAT-POS-590ac91e-25

> <provenance>
{"isomeric_smiles": "Cc1ccncc1NC(=O)C[C@@]23CCC[C@@H]2C3", "inchi": "InChI=1S/C14H18N2O/c1-10-4-6-15-9-12(10)16-13(17)8-14-5-2-3-11(14)7-14/h4,6,9,11H,2-3,5,7-8H2,1H3,(H,16,17)/t11-,14+/m1/s1", "inchi_key": "ZVPGUVBZPWGJPX-RISCZKNCSA-N", "fixed_inchi": "InChI=1/C14H18N2O/c1-10-4-6-15-9-12(10)16-13(17)8-14-5-2-3-11(14)7-14/h4,6,9,11H,2-3,5,7-8H2,1H3,(H,16,17)/t11-,14+/m1/s1/f/h16H", "fixed_inchikey": "ZVPGUVBZPWGJPX-KMTFVIQDNA-N"}

> <data_format>
sdf

$$$$
