LIG(A-305)
  -OEChem-06042511323D

 30 31  0     0  0  0  0  0  0999 V2000
   13.9153   -1.8047   21.3568 Cl  0  0  0  0  0  0  0  0  0  0  0  0
   12.6825   -1.0297   22.3190 C   0  0  0  0  0  0  0  0  0  0  0  0
   13.0557   -0.1188   23.2831 C   0  0  0  0  0  0  0  0  0  0  0  0
   12.0768    0.3972   24.1212 C   0  0  0  0  0  0  0  0  0  0  0  0
   10.7498    0.0353   23.9543 C   0  0  0  0  0  0  0  0  0  0  0  0
   11.3614   -1.3925   22.1321 C   0  0  0  0  0  0  0  0  0  0  0  0
   10.3726   -0.8395   22.9432 C   0  0  0  0  0  0  0  0  0  0  0  0
    8.9125   -1.0893   22.6394 C   0  0  0  0  0  0  0  0  0  0  0  0
    8.4485   -0.2041   21.4975 C   0  0  0  0  0  0  0  0  0  0  0  0
    9.1406    0.7178   21.0735 O   0  0  0  0  0  0  0  0  0  0  0  0
    7.2314   -0.5159   20.9976 N   0  0  0  0  0  0  0  0  0  0  0  0
    6.5654    0.1243   19.9217 C   0  0  0  0  0  0  0  0  0  0  0  0
    5.4095    0.8914   20.1639 C   0  0  0  0  0  0  0  0  0  0  0  0
    4.8817    1.1193   21.5580 C   0  0  0  0  0  0  0  0  0  0  0  0
    6.9763    0.0314   18.5947 C   0  0  0  0  0  0  0  0  0  0  0  0
    6.3392    0.6035   17.5858 N   0  0  0  0  0  0  0  0  0  0  0  0
    5.2123    1.3356   17.8270 N   0  0  0  0  0  0  0  0  0  0  0  0
    4.7695    1.4695   19.0720 C   0  0  0  0  0  0  0  0  0  0  0  0
   14.0865    0.1867   23.3844 H   0  0  0  0  0  0  0  0  0  0  0  0
   12.3512    1.0846   24.9078 H   0  0  0  0  0  0  0  0  0  0  0  0
    9.9995    0.4383   24.6183 H   0  0  0  0  0  0  0  0  0  0  0  0
   11.0973   -2.1012   21.3611 H   0  0  0  0  0  0  0  0  0  0  0  0
    8.7766   -2.1441   22.3581 H   0  0  0  0  0  0  0  0  0  0  0  0
    8.3134   -0.8685   23.5350 H   0  0  0  0  0  0  0  0  0  0  0  0
    6.7508   -1.2776   21.4320 H   0  0  0  0  0  0  0  0  0  0  0  0
    5.6466    1.6299   22.1614 H   0  0  0  0  0  0  0  0  0  0  0  0
    3.9765    1.7425   21.5099 H   0  0  0  0  0  0  0  0  0  0  0  0
    4.6363    0.1515   22.0198 H   0  0  0  0  0  0  0  0  0  0  0  0
    7.8660   -0.5405   18.3761 H   0  0  0  0  0  0  0  0  0  0  0  0
    3.8758    2.0511   19.2440 H   0  0  0  0  0  0  0  0  0  0  0  0
  1  2  1  0  0  0  0
  2  3  2  0  0  0  0
  2  6  1  0  0  0  0
  3  4  1  0  0  0  0
  3 19  1  0  0  0  0
  4  5  2  0  0  0  0
  4 20  1  0  0  0  0
  5  7  1  0  0  0  0
  5 21  1  0  0  0  0
  6  7  2  0  0  0  0
  6 22  1  0  0  0  0
  7  8  1  0  0  0  0
  8  9  1  0  0  0  0
  8 23  1  0  0  0  0
  8 24  1  0  0  0  0
  9 10  2  0  0  0  0
  9 11  1  0  0  0  0
 11 12  1  0  0  0  0
 11 25  1  0  0  0  0
 12 13  2  0  0  0  0
 12 15  1  0  0  0  0
 13 14  1  0  0  0  0
 13 18  1  0  0  0  0
 14 26  1  0  0  0  0
 14 27  1  0  0  0  0
 14 28  1  0  0  0  0
 15 16  2  0  0  0  0
 15 29  1  0  0  0  0
 16 17  1  0  0  0  0
 17 18  2  0  0  0  0
 18 30  1  0  0  0  0
M  END
> <compound_name>
EDG-MED-0da5ad92-16

> <provenance>
{"isomeric_smiles": "Cc1cnncc1NC(=O)Cc2cccc(c2)Cl", "inchi": "InChI=1S/C13H12ClN3O/c1-9-7-15-16-8-12(9)17-13(18)6-10-3-2-4-11(14)5-10/h2-5,7-8H,6H2,1H3,(H,15,17,18)", "inchi_key": "VUGOQWLHGHMVIW-UHFFFAOYSA-N", "fixed_inchi": "InChI=1/C13H12ClN3O/c1-9-7-15-16-8-12(9)17-13(18)6-10-3-2-4-11(14)5-10/h2-5,7-8H,6H2,1H3,(H,15,17,18)/f/h17H", "fixed_inchikey": "VUGOQWLHGHMVIW-HCKMINDGNA-N"}

> <data_format>
sdf

$$$$
