LIG(A-302)
  -OEChem-06042511393D

 35 37  0     1  0  0  0  0  0999 V2000
   13.8485   -1.7986   21.8246 Cl  0  0  0  0  0  0  0  0  0  0  0  0
   12.5163   -0.9881   22.5782 C   0  0  0  0  0  0  0  0  0  0  0  0
   12.7365    0.0318   23.4897 C   0  0  0  0  0  0  0  0  0  0  0  0
   14.3263    0.6532   23.7552 Cl  0  0  0  0  0  0  0  0  0  0  0  0
   11.6680    0.6590   24.0990 C   0  0  0  0  0  0  0  0  0  0  0  0
   10.3811    0.2973   23.7627 C   0  0  0  0  0  0  0  0  0  0  0  0
   11.2225   -1.3477   22.2419 C   0  0  0  0  0  0  0  0  0  0  0  0
   10.1419   -0.6875   22.8182 C   0  0  0  0  0  0  0  0  0  0  0  0
    8.7369   -0.9412   22.3330 C   0  0  2  0  0  0  0  0  0  0  0  0
    8.2692   -2.2829   22.3952 O   0  0  0  0  0  0  0  0  0  0  0  0
    8.0804   -0.0830   21.2562 C   0  0  0  0  0  0  0  0  0  0  0  0
    8.4997    1.0556   21.0493 O   0  0  0  0  0  0  0  0  0  0  0  0
    7.0718   -0.6402   20.5586 N   0  0  0  0  0  0  0  0  0  0  0  0
    6.3263   -0.0408   19.5324 C   0  0  0  0  0  0  0  0  0  0  0  0
    5.2745    0.8591   19.8843 C   0  0  0  0  0  0  0  0  0  0  0  0
    4.8550    1.1028   21.2198 C   0  0  0  0  0  0  0  0  0  0  0  0
    3.8740    2.0156   21.4927 C   0  0  0  0  0  0  0  0  0  0  0  0
    3.2565    2.7179   20.4670 C   0  0  0  0  0  0  0  0  0  0  0  0
    3.6201    2.5123   19.1666 C   0  0  0  0  0  0  0  0  0  0  0  0
    4.6400    1.5834   18.8417 C   0  0  0  0  0  0  0  0  0  0  0  0
    5.0895    1.3548   17.5191 C   0  0  0  0  0  0  0  0  0  0  0  0
    6.0554    0.5099   17.1923 N   0  0  0  0  0  0  0  0  0  0  0  0
    6.6498   -0.1634   18.1829 C   0  0  0  0  0  0  0  0  0  0  0  0
   11.8397    1.4297   24.8359 H   0  0  0  0  0  0  0  0  0  0  0  0
    9.5475    0.7887   24.2423 H   0  0  0  0  0  0  0  0  0  0  0  0
   11.0516   -2.1423   21.5307 H   0  0  0  0  0  0  0  0  0  0  0  0
    8.1968   -0.5376   23.2021 H   0  0  0  0  0  0  0  0  0  0  0  0
    7.5074   -2.3272   22.9609 H   0  0  0  0  0  0  0  0  0  0  0  0
    6.8288   -1.5803   20.7975 H   0  0  0  0  0  0  0  0  0  0  0  0
    5.3174    0.5595   22.0307 H   0  0  0  0  0  0  0  0  0  0  0  0
    3.5768    2.1917   22.5159 H   0  0  0  0  0  0  0  0  0  0  0  0
    2.4815    3.4333   20.6993 H   0  0  0  0  0  0  0  0  0  0  0  0
    3.1262    3.0623   18.3792 H   0  0  0  0  0  0  0  0  0  0  0  0
    4.6124    1.9067   16.7227 H   0  0  0  0  0  0  0  0  0  0  0  0
    7.4381   -0.8524   17.9175 H   0  0  0  0  0  0  0  0  0  0  0  0
  1  2  1  0  0  0  0
  2  3  2  0  0  0  0
  2  7  1  0  0  0  0
  3  4  1  0  0  0  0
  3  5  1  0  0  0  0
  5  6  2  0  0  0  0
  5 24  1  0  0  0  0
  6  8  1  0  0  0  0
  6 25  1  0  0  0  0
  7  8  2  0  0  0  0
  7 26  1  0  0  0  0
  8  9  1  0  0  0  0
  9 10  1  0  0  0  0
  9 11  1  0  0  0  0
  9 27  1  0  0  0  0
 10 28  1  0  0  0  0
 11 12  2  0  0  0  0
 11 13  1  0  0  0  0
 13 14  1  0  0  0  0
 13 29  1  0  0  0  0
 14 15  2  0  0  0  0
 14 23  1  0  0  0  0
 15 16  1  0  0  0  0
 15 20  1  0  0  0  0
 16 17  2  0  0  0  0
 16 30  1  0  0  0  0
 17 18  1  0  0  0  0
 17 31  1  0  0  0  0
 18 19  2  0  0  0  0
 18 32  1  0  0  0  0
 19 20  1  0  0  0  0
 19 33  1  0  0  0  0
 20 21  2  0  0  0  0
 21 22  1  0  0  0  0
 21 34  1  0  0  0  0
 22 23  2  0  0  0  0
 23 35  1  0  0  0  0
M  END
> <compound_name>
MAT-POS-fce787c2-4

> <provenance>
{"isomeric_smiles": "c1ccc2c(c1)cncc2NC(=O)[C@H](c3ccc(c(c3)Cl)Cl)O", "inchi": "InChI=1S/C17H12Cl2N2O2/c18-13-6-5-10(7-14(13)19)16(22)17(23)21-15-9-20-8-11-3-1-2-4-12(11)15/h1-9,16,22H,(H,21,23)/t16-/m0/s1", "inchi_key": "CKFWJQDYTZGUBQ-INIZCTEOSA-N", "fixed_inchi": "InChI=1/C17H12Cl2N2O2/c18-13-6-5-10(7-14(13)19)16(22)17(23)21-15-9-20-8-11-3-1-2-4-12(11)15/h1-9,16,22H,(H,21,23)/t16-/m0/s1/f/h21H", "fixed_inchikey": "CKFWJQDYTZGUBQ-MMUJGNLUNA-N"}

> <data_format>
sdf

$$$$
