LIG(A-306)
  -OEChem-06042511413D

 59 63  0     1  0  0  0  0  0999 V2000
    6.1187    7.5712   23.1856 O   0  0  0  0  0  0  0  0  0  0  0  0
    7.2759    6.7366   22.9962 S   0  0  0  0  0  0  0  0  0  0  0  0
    8.5121    7.3540   22.5931 O   0  0  0  0  0  0  0  0  0  0  0  0
    6.8785    5.2460   22.0918 C   0  0  0  0  0  0  0  0  0  0  0  0
    7.5054    5.4659   24.2308 C   0  0  0  0  0  0  0  0  0  0  0  0
    6.7420    4.4167   23.3926 C   0  0  0  0  0  0  0  0  0  0  0  0
    5.2748    4.2828   23.8072 C   0  0  0  0  0  0  0  0  0  0  0  0
    7.4281    3.0519   23.2586 C   0  0  0  0  0  0  0  0  0  0  0  0
    7.6123    2.0691   24.7387 S   0  0  0  0  0  0  0  0  0  0  0  0
    8.1173    2.9048   25.7808 O   0  0  0  0  0  0  0  0  0  0  0  0
    6.4028    1.3395   24.9592 O   0  0  0  0  0  0  0  0  0  0  0  0
    8.7659    0.9823   24.3970 N   0  0  1  0  0  0  0  0  0  0  0  0
   10.1506    1.2764   24.7832 C   0  0  0  0  0  0  0  0  0  0  0  0
   11.1099    0.5530   23.8664 C   0  0  0  0  0  0  0  0  0  0  0  0
   12.4517    0.9311   23.8680 C   0  0  0  0  0  0  0  0  0  0  0  0
   13.3722    0.3052   23.0517 C   0  0  0  0  0  0  0  0  0  0  0  0
   12.9578   -0.7369   22.2545 C   0  0  0  0  0  0  0  0  0  0  0  0
   14.1229   -1.5513   21.2452 Cl  0  0  0  0  0  0  0  0  0  0  0  0
   11.6369   -1.1459   22.2277 C   0  0  0  0  0  0  0  0  0  0  0  0
   10.6915   -0.4839   23.0142 C   0  0  0  0  0  0  0  0  0  0  0  0
    9.2167   -0.8321   22.8978 C   0  0  1  0  0  0  0  0  0  0  0  0
    8.4718   -0.4450   24.1759 C   0  0  0  0  0  0  0  0  0  0  0  0
    8.6351   -0.0509   21.7148 C   0  0  0  0  0  0  0  0  0  0  0  0
    9.1772    0.9652   21.2688 O   0  0  0  0  0  0  0  0  0  0  0  0
    7.4810   -0.5629   21.2074 N   0  0  0  0  0  0  0  0  0  0  0  0
    6.7377   -0.0917   20.0929 C   0  0  0  0  0  0  0  0  0  0  0  0
    5.5504    0.6817   20.3190 C   0  0  0  0  0  0  0  0  0  0  0  0
    4.9781    0.8955   21.6012 C   0  0  0  0  0  0  0  0  0  0  0  0
    3.8548    1.6611   21.7523 C   0  0  0  0  0  0  0  0  0  0  0  0
    3.2549    2.2629   20.6534 C   0  0  0  0  0  0  0  0  0  0  0  0
    3.7652    2.0862   19.3984 C   0  0  0  0  0  0  0  0  0  0  0  0
    4.9115    1.2777   19.1931 C   0  0  0  0  0  0  0  0  0  0  0  0
    5.4597    1.0240   17.9118 C   0  0  0  0  0  0  0  0  0  0  0  0
    6.5350    0.2798   17.6978 N   0  0  0  0  0  0  0  0  0  0  0  0
    7.1481   -0.2489   18.7670 C   0  0  0  0  0  0  0  0  0  0  0  0
    5.9443    5.3171   21.5155 H   0  0  0  0  0  0  0  0  0  0  0  0
    7.6899    4.9015   21.4337 H   0  0  0  0  0  0  0  0  0  0  0  0
    8.5605    5.2068   24.4031 H   0  0  0  0  0  0  0  0  0  0  0  0
    7.0225    5.6955   25.1920 H   0  0  0  0  0  0  0  0  0  0  0  0
    5.2071    3.6907   24.7318 H   0  0  0  0  0  0  0  0  0  0  0  0
    4.8501    5.2826   23.9804 H   0  0  0  0  0  0  0  0  0  0  0  0
    4.7124    3.7789   23.0073 H   0  0  0  0  0  0  0  0  0  0  0  0
    6.8429    2.4587   22.5406 H   0  0  0  0  0  0  0  0  0  0  0  0
    8.4354    3.2285   22.8535 H   0  0  0  0  0  0  0  0  0  0  0  0
   10.3260    2.3600   24.7116 H   0  0  0  0  0  0  0  0  0  0  0  0
   10.3176    0.9456   25.8189 H   0  0  0  0  0  0  0  0  0  0  0  0
   12.7769    1.7283   24.5200 H   0  0  0  0  0  0  0  0  0  0  0  0
   14.4025    0.6288   23.0389 H   0  0  0  0  0  0  0  0  0  0  0  0
   11.3379   -1.9735   21.6015 H   0  0  0  0  0  0  0  0  0  0  0  0
    9.1035   -1.9113   22.7174 H   0  0  0  0  0  0  0  0  0  0  0  0
    8.8303   -1.0457   25.0248 H   0  0  0  0  0  0  0  0  0  0  0  0
    7.3899   -0.5977   24.0495 H   0  0  0  0  0  0  0  0  0  0  0  0
    7.1123   -1.3664   21.6750 H   0  0  0  0  0  0  0  0  0  0  0  0
    5.4368    0.4467   22.4700 H   0  0  0  0  0  0  0  0  0  0  0  0
    3.4301    1.7991   22.7357 H   0  0  0  0  0  0  0  0  0  0  0  0
    2.3768    2.8762   20.7924 H   0  0  0  0  0  0  0  0  0  0  0  0
    3.2912    2.5666   18.5553 H   0  0  0  0  0  0  0  0  0  0  0  0
    4.9705    1.4647   17.0557 H   0  0  0  0  0  0  0  0  0  0  0  0
    8.0310   -0.8447   18.5884 H   0  0  0  0  0  0  0  0  0  0  0  0
  1  2  2  0  0  0  0
  2  3  2  0  0  0  0
  2  4  1  0  0  0  0
  2  5  1  0  0  0  0
  4  6  1  0  0  0  0
  4 36  1  0  0  0  0
  4 37  1  0  0  0  0
  5  6  1  0  0  0  0
  5 38  1  0  0  0  0
  5 39  1  0  0  0  0
  6  7  1  0  0  0  0
  6  8  1  0  0  0  0
  7 40  1  0  0  0  0
  7 41  1  0  0  0  0
  7 42  1  0  0  0  0
  8  9  1  0  0  0  0
  8 43  1  0  0  0  0
  8 44  1  0  0  0  0
  9 10  2  0  0  0  0
  9 11  2  0  0  0  0
  9 12  1  0  0  0  0
 12 13  1  0  0  0  0
 12 22  1  0  0  0  0
 13 14  1  0  0  0  0
 13 45  1  0  0  0  0
 13 46  1  0  0  0  0
 14 15  2  0  0  0  0
 14 20  1  0  0  0  0
 15 16  1  0  0  0  0
 15 47  1  0  0  0  0
 16 17  2  0  0  0  0
 16 48  1  0  0  0  0
 17 18  1  0  0  0  0
 17 19  1  0  0  0  0
 19 20  2  0  0  0  0
 19 49  1  0  0  0  0
 20 21  1  0  0  0  0
 21 22  1  0  0  0  0
 21 23  1  0  0  0  0
 21 50  1  0  0  0  0
 22 51  1  0  0  0  0
 22 52  1  0  0  0  0
 23 24  2  0  0  0  0
 23 25  1  0  0  0  0
 25 26  1  0  0  0  0
 25 53  1  0  0  0  0
 26 27  2  0  0  0  0
 26 35  1  0  0  0  0
 27 28  1  0  0  0  0
 27 32  1  0  0  0  0
 28 29  2  0  0  0  0
 28 54  1  0  0  0  0
 29 30  1  0  0  0  0
 29 55  1  0  0  0  0
 30 31  2  0  0  0  0
 30 56  1  0  0  0  0
 31 32  1  0  0  0  0
 31 57  1  0  0  0  0
 32 33  2  0  0  0  0
 33 34  1  0  0  0  0
 33 58  1  0  0  0  0
 34 35  2  0  0  0  0
 35 59  1  0  0  0  0
M  END
> <compound_name>
EDJ-MED-4fff0a85-3

> <provenance>
{"isomeric_smiles": "CC1(CS(=O)(=O)C1)CS(=O)(=O)[N@]2Cc3ccc(cc3[C@@H](C2)C(=O)Nc4cncc5c4cccc5)Cl", "inchi": "InChI=1S/C24H24ClN3O5S2/c1-24(13-34(30,31)14-24)15-35(32,33)28-11-17-6-7-18(25)8-20(17)21(12-28)23(29)27-22-10-26-9-16-4-2-3-5-19(16)22/h2-10,21H,11-15H2,1H3,(H,27,29)/t21-/m1/s1", "inchi_key": "NHHHIEXFSUFQCS-OAQYLSRUSA-N", "fixed_inchi": "InChI=1/C24H24ClN3O5S2/c1-24(13-34(30,31)14-24)15-35(32,33)28-11-17-6-7-18(25)8-20(17)21(12-28)23(29)27-22-10-26-9-16-4-2-3-5-19(16)22/h2-10,21H,11-15H2,1H3,(H,27,29)/t21-/m1/s1/f/h27H", "fixed_inchikey": "NHHHIEXFSUFQCS-AXJFXLNJNA-N"}

> <data_format>
sdf

$$$$
