LIG(A-305)
  -OEChem-06042511343D

 34 35  0     0  0  0  0  0  0999 V2000
    8.6982    0.5122   21.2955 O   0  0  0  0  0  0  0  0  0  0  0  0
    7.9662   -0.4637   21.5226 C   0  0  0  0  0  0  0  0  0  0  0  0
    8.1602   -1.3797   22.7147 C   0  0  0  0  0  0  0  0  0  0  0  0
    9.6103   -1.2968   23.0935 C   0  0  0  0  0  0  0  0  0  0  0  0
   10.5782   -1.7998   22.2414 C   0  0  0  0  0  0  0  0  0  0  0  0
   11.9012   -1.4349   22.3823 C   0  0  0  0  0  0  0  0  0  0  0  0
   10.0184   -0.4917   24.1444 C   0  0  0  0  0  0  0  0  0  0  0  0
   11.3445   -0.1398   24.2903 C   0  0  0  0  0  0  0  0  0  0  0  0
   12.3024   -0.5809   23.3942 C   0  0  0  0  0  0  0  0  0  0  0  0
   13.7204   -0.1000   23.4811 C   0  0  0  0  0  0  0  0  0  0  0  0
    6.9121   -0.7987   20.7768 N   0  0  0  0  0  0  0  0  0  0  0  0
    6.3990   -0.0167   19.7328 C   0  0  0  0  0  0  0  0  0  0  0  0
    5.3021    0.8223   19.9639 C   0  0  0  0  0  0  0  0  0  0  0  0
    4.7542    1.0604   21.3479 C   0  0  0  0  0  0  0  0  0  0  0  0
    4.7750    1.4923   18.8719 C   0  0  0  0  0  0  0  0  0  0  0  0
    5.3719    1.3542   17.6378 C   0  0  0  0  0  0  0  0  0  0  0  0
    6.4498    0.5932   17.4208 N   0  0  0  0  0  0  0  0  0  0  0  0
    6.9439   -0.0858   18.4587 C   0  0  0  0  0  0  0  0  0  0  0  0
    7.5301   -1.0485   23.5533 H   0  0  0  0  0  0  0  0  0  0  0  0
    7.8979   -2.4133   22.4447 H   0  0  0  0  0  0  0  0  0  0  0  0
   10.2944   -2.4861   21.4572 H   0  0  0  0  0  0  0  0  0  0  0  0
   12.6356   -1.8221   21.6915 H   0  0  0  0  0  0  0  0  0  0  0  0
    9.2901   -0.1355   24.8579 H   0  0  0  0  0  0  0  0  0  0  0  0
   11.6395    0.4898   25.1168 H   0  0  0  0  0  0  0  0  0  0  0  0
   14.3050   -0.5291   22.6540 H   0  0  0  0  0  0  0  0  0  0  0  0
   13.7400    0.9977   23.4128 H   0  0  0  0  0  0  0  0  0  0  0  0
   14.1563   -0.4155   24.4404 H   0  0  0  0  0  0  0  0  0  0  0  0
    6.4571   -1.6667   20.9760 H   0  0  0  0  0  0  0  0  0  0  0  0
    5.5374    1.5017   21.9819 H   0  0  0  0  0  0  0  0  0  0  0  0
    3.8984    1.7490   21.2899 H   0  0  0  0  0  0  0  0  0  0  0  0
    4.4267    0.1042   21.7820 H   0  0  0  0  0  0  0  0  0  0  0  0
    3.9026    2.1184   18.9870 H   0  0  0  0  0  0  0  0  0  0  0  0
    4.9466    1.8890   16.8014 H   0  0  0  0  0  0  0  0  0  0  0  0
    7.8059   -0.7168   18.2996 H   0  0  0  0  0  0  0  0  0  0  0  0
  1  2  2  0  0  0  0
  2  3  1  0  0  0  0
  2 11  1  0  0  0  0
  3  4  1  0  0  0  0
  3 19  1  0  0  0  0
  3 20  1  0  0  0  0
  4  5  2  0  0  0  0
  4  7  1  0  0  0  0
  5  6  1  0  0  0  0
  5 21  1  0  0  0  0
  6  9  2  0  0  0  0
  6 22  1  0  0  0  0
  7  8  2  0  0  0  0
  7 23  1  0  0  0  0
  8  9  1  0  0  0  0
  8 24  1  0  0  0  0
  9 10  1  0  0  0  0
 10 25  1  0  0  0  0
 10 26  1  0  0  0  0
 10 27  1  0  0  0  0
 11 12  1  0  0  0  0
 11 28  1  0  0  0  0
 12 13  2  0  0  0  0
 12 18  1  0  0  0  0
 13 14  1  0  0  0  0
 13 15  1  0  0  0  0
 14 29  1  0  0  0  0
 14 30  1  0  0  0  0
 14 31  1  0  0  0  0
 15 16  2  0  0  0  0
 15 32  1  0  0  0  0
 16 17  1  0  0  0  0
 16 33  1  0  0  0  0
 17 18  2  0  0  0  0
 18 34  1  0  0  0  0
M  END
> <compound_name>
JAN-GHE-83b26c96-11

> <provenance>
{"isomeric_smiles": "Cc1ccc(cc1)CC(=O)Nc2cnccc2C", "inchi": "InChI=1S/C15H16N2O/c1-11-3-5-13(6-4-11)9-15(18)17-14-10-16-8-7-12(14)2/h3-8,10H,9H2,1-2H3,(H,17,18)", "inchi_key": "ADHDKMXDJWXBNY-UHFFFAOYSA-N", "fixed_inchi": "InChI=1/C15H16N2O/c1-11-3-5-13(6-4-11)9-15(18)17-14-10-16-8-7-12(14)2/h3-8,10H,9H2,1-2H3,(H,17,18)/f/h17H", "fixed_inchikey": "ADHDKMXDJWXBNY-HCKMINDGNA-N"}

> <data_format>
sdf

$$$$
