LIG(A-305)
  -OEChem-06042511363D

 43 45  0     0  0  0  0  0  0999 V2000
    4.3834   -0.4247   22.5393 F   0  0  0  0  0  0  0  0  0  0  0  0
    4.0004    0.4934   21.6273 C   0  0  0  0  0  0  0  0  0  0  0  0
    2.9984    1.3684   21.9713 C   0  0  0  0  0  0  0  0  0  0  0  0
    2.6005    2.3134   21.0443 C   0  0  0  0  0  0  0  0  0  0  0  0
    3.2185    2.3904   19.8083 C   0  0  0  0  0  0  0  0  0  0  0  0
    4.6365    0.4984   20.3913 C   0  0  0  0  0  0  0  0  0  0  0  0
    4.2405    1.5014   19.4813 C   0  0  0  0  0  0  0  0  0  0  0  0
    4.8916    1.6064   18.2564 N   0  0  0  0  0  0  0  0  0  0  0  0
    5.9136    0.7924   17.8504 C   0  0  0  0  0  0  0  0  0  0  0  0
    6.5206    1.0333   16.8034 O   0  0  0  0  0  0  0  0  0  0  0  0
    6.2645   -0.2567   18.7444 C   0  0  0  0  0  0  0  0  0  0  0  0
    5.6815   -0.4447   19.9594 C   0  0  0  0  0  0  0  0  0  0  0  0
    6.0644   -1.6567   20.7484 C   0  0  0  0  0  0  0  0  0  0  0  0
    5.3314   -2.6447   20.8003 O   0  0  0  0  0  0  0  0  0  0  0  0
    7.2094   -1.5857   21.4294 N   0  0  0  0  0  0  0  0  0  0  0  0
    7.5853   -2.5897   22.4164 C   0  0  0  0  0  0  0  0  0  0  0  0
    9.0543   -2.5508   22.7325 C   0  0  0  0  0  0  0  0  0  0  0  0
    9.4734   -1.1788   22.6575 O   0  0  0  0  0  0  0  0  0  0  0  0
   10.8134   -0.8878   22.7255 C   0  0  0  0  0  0  0  0  0  0  0  0
   11.1244    0.4212   23.1436 C   0  0  0  0  0  0  0  0  0  0  0  0
   10.0444    1.2112   23.4315 O   0  0  0  0  0  0  0  0  0  0  0  0
   10.2724    2.6022   23.6626 C   0  0  0  0  0  0  0  0  0  0  0  0
   11.8304   -1.7538   22.3506 C   0  0  0  0  0  0  0  0  0  0  0  0
   13.1434   -1.3148   22.3676 C   0  0  0  0  0  0  0  0  0  0  0  0
   13.4514   -0.0309   22.7816 C   0  0  0  0  0  0  0  0  0  0  0  0
   12.4494    0.8372   23.1836 C   0  0  0  0  0  0  0  0  0  0  0  0
    2.5322    1.3189   22.9442 H   0  0  0  0  0  0  0  0  0  0  0  0
    1.8006    2.9974   21.2865 H   0  0  0  0  0  0  0  0  0  0  0  0
    2.9083    3.1407   19.0961 H   0  0  0  0  0  0  0  0  0  0  0  0
    4.5920    2.3258   17.6292 H   0  0  0  0  0  0  0  0  0  0  0  0
    7.0397   -0.9448   18.4409 H   0  0  0  0  0  0  0  0  0  0  0  0
    7.8288   -0.8198   21.2572 H   0  0  0  0  0  0  0  0  0  0  0  0
    7.0187   -2.4072   23.3414 H   0  0  0  0  0  0  0  0  0  0  0  0
    7.3336   -3.5855   22.0227 H   0  0  0  0  0  0  0  0  0  0  0  0
    9.2318   -2.9434   23.7446 H   0  0  0  0  0  0  0  0  0  0  0  0
    9.6124   -3.1548   22.0019 H   0  0  0  0  0  0  0  0  0  0  0  0
    9.3158    3.1000   23.8798 H   0  0  0  0  0  0  0  0  0  0  0  0
   10.9522    2.7250   24.5186 H   0  0  0  0  0  0  0  0  0  0  0  0
   10.7252    3.0531   22.7672 H   0  0  0  0  0  0  0  0  0  0  0  0
   11.5993   -2.7642   22.0472 H   0  0  0  0  0  0  0  0  0  0  0  0
   13.9343   -1.9806   22.0549 H   0  0  0  0  0  0  0  0  0  0  0  0
   14.4804    0.2969   22.7915 H   0  0  0  0  0  0  0  0  0  0  0  0
   12.6967    1.8312   23.5260 H   0  0  0  0  0  0  0  0  0  0  0  0
  1  2  1  0  0  0  0
  2  3  2  0  0  0  0
  2  6  1  0  0  0  0
  3  4  1  0  0  0  0
  3 27  1  0  0  0  0
  4  5  2  0  0  0  0
  4 28  1  0  0  0  0
  5  7  1  0  0  0  0
  5 29  1  0  0  0  0
  6  7  2  0  0  0  0
  6 12  1  0  0  0  0
  7  8  1  0  0  0  0
  8  9  1  0  0  0  0
  8 30  1  0  0  0  0
  9 10  2  0  0  0  0
  9 11  1  0  0  0  0
 11 12  2  0  0  0  0
 11 31  1  0  0  0  0
 12 13  1  0  0  0  0
 13 14  2  0  0  0  0
 13 15  1  0  0  0  0
 15 16  1  0  0  0  0
 15 32  1  0  0  0  0
 16 17  1  0  0  0  0
 16 33  1  0  0  0  0
 16 34  1  0  0  0  0
 17 18  1  0  0  0  0
 17 35  1  0  0  0  0
 17 36  1  0  0  0  0
 18 19  1  0  0  0  0
 19 20  2  0  0  0  0
 19 23  1  0  0  0  0
 20 21  1  0  0  0  0
 20 26  1  0  0  0  0
 21 22  1  0  0  0  0
 22 37  1  0  0  0  0
 22 38  1  0  0  0  0
 22 39  1  0  0  0  0
 23 24  2  0  0  0  0
 23 40  1  0  0  0  0
 24 25  1  0  0  0  0
 24 41  1  0  0  0  0
 25 26  2  0  0  0  0
 25 42  1  0  0  0  0
 26 43  1  0  0  0  0
M  END
> <compound_name>
EDJ-MED-6af13d92-2

> <provenance>
{"isomeric_smiles": "COc1ccccc1OCCNC(=O)c2cc(=O)[nH]c3c2c(ccc3)F", "inchi": "InChI=1S/C19H17FN2O4/c1-25-15-7-2-3-8-16(15)26-10-9-21-19(24)12-11-17(23)22-14-6-4-5-13(20)18(12)14/h2-8,11H,9-10H2,1H3,(H,21,24)(H,22,23)", "inchi_key": "HLMOMNRZAYBAJZ-UHFFFAOYSA-N", "fixed_inchi": "InChI=1/C19H17FN2O4/c1-25-15-7-2-3-8-16(15)26-10-9-21-19(24)12-11-17(23)22-14-6-4-5-13(20)18(12)14/h2-8,11H,9-10H2,1H3,(H,21,24)(H,22,23)/f/h21-22H", "fixed_inchikey": "HLMOMNRZAYBAJZ-XBTAAFKLNA-N"}

> <data_format>
sdf

$$$$
