LIG(A-305)
  -OEChem-06042511353D

 52 55  0     0  0  0  0  0  0999 V2000
    9.2626    0.9685   21.1240 O   0  0  0  0  0  0  0  0  0  0  0  0
    8.8977   -0.0645   21.6680 C   0  0  0  0  0  0  0  0  0  0  0  0
    7.8989   -0.9776   20.9799 C   0  0  0  0  0  0  0  0  0  0  0  0
    7.0409   -0.2468   19.9667 C   0  0  0  0  0  0  0  0  0  0  0  0
    5.9078    0.5071   20.3766 C   0  0  0  0  0  0  0  0  0  0  0  0
    5.5016    0.6290   21.7315 C   0  0  0  0  0  0  0  0  0  0  0  0
    4.4204    1.3899   22.0753 C   0  0  0  0  0  0  0  0  0  0  0  0
    3.6955    2.0668   21.1072 C   0  0  0  0  0  0  0  0  0  0  0  0
    4.0356    1.9698   19.7883 C   0  0  0  0  0  0  0  0  0  0  0  0
    5.1458    1.1849   19.3874 C   0  0  0  0  0  0  0  0  0  0  0  0
    5.5570    1.0459   18.0415 C   0  0  0  0  0  0  0  0  0  0  0  0
    6.6171    0.3451   17.6607 N   0  0  0  0  0  0  0  0  0  0  0  0
    7.3281   -0.2718   18.6158 C   0  0  0  0  0  0  0  0  0  0  0  0
    9.3766   -0.4424   22.8900 N   0  0  0  0  0  0  0  0  0  0  0  0
   10.4004    0.3938   23.5091 C   0  0  0  0  0  0  0  0  0  0  0  0
   11.8005   -0.0140   23.1293 C   0  0  0  0  0  0  0  0  0  0  0  0
   12.0527   -0.9300   22.1474 C   0  0  0  0  0  0  0  0  0  0  0  0
   13.7128   -1.2758   21.9856 S   0  0  0  0  0  0  0  0  0  0  0  0
   14.1135   -0.1667   23.2456 C   0  0  0  0  0  0  0  0  0  0  0  0
   12.9973    0.4281   23.7545 C   0  0  0  0  0  0  0  0  0  0  0  0
    8.9586   -1.6254   23.5870 C   0  0  0  0  0  0  0  0  0  0  0  0
    8.0665   -1.5285   24.6509 C   0  0  0  0  0  0  0  0  0  0  0  0
    7.7955   -2.6305   25.4439 C   0  0  0  0  0  0  0  0  0  0  0  0
    9.5448   -2.8574   23.3031 C   0  0  0  0  0  0  0  0  0  0  0  0
    9.2699   -3.9654   24.0891 C   0  0  0  0  0  0  0  0  0  0  0  0
    8.4047   -3.8704   25.1890 C   0  0  0  0  0  0  0  0  0  0  0  0
    8.1948   -4.9575   26.0250 N   0  0  0  0  0  0  0  0  0  0  0  0
    9.2529   -5.9333   26.2332 C   0  0  0  0  0  0  0  0  0  0  0  0
    7.3156   -4.8525   27.1819 C   0  0  0  0  0  0  0  0  0  0  0  0
    8.4505   -1.7768   20.4630 H   0  0  0  0  0  0  0  0  0  0  0  0
    7.2423   -1.4201   21.7434 H   0  0  0  0  0  0  0  0  0  0  0  0
    6.0554    0.1127   22.5016 H   0  0  0  0  0  0  0  0  0  0  0  0
    4.1276    1.4648   23.1122 H   0  0  0  0  0  0  0  0  0  0  0  0
    2.8533    2.6769   21.3988 H   0  0  0  0  0  0  0  0  0  0  0  0
    3.4544    2.4951   19.0449 H   0  0  0  0  0  0  0  0  0  0  0  0
    4.9734    1.5395   17.2785 H   0  0  0  0  0  0  0  0  0  0  0  0
    8.1958   -0.8339   18.3034 H   0  0  0  0  0  0  0  0  0  0  0  0
   10.2406    1.4353   23.1937 H   0  0  0  0  0  0  0  0  0  0  0  0
   10.2983    0.3219   24.6020 H   0  0  0  0  0  0  0  0  0  0  0  0
   11.2840   -1.3850   21.5404 H   0  0  0  0  0  0  0  0  0  0  0  0
   15.1189    0.0306   23.5871 H   0  0  0  0  0  0  0  0  0  0  0  0
   13.0204    1.1589   24.5494 H   0  0  0  0  0  0  0  0  0  0  0  0
    7.5817   -0.5862   24.8595 H   0  0  0  0  0  0  0  0  0  0  0  0
    7.1063   -2.5357   26.2699 H   0  0  0  0  0  0  0  0  0  0  0  0
   10.2187   -2.9495   22.4641 H   0  0  0  0  0  0  0  0  0  0  0  0
    9.7278   -4.9142   23.8515 H   0  0  0  0  0  0  0  0  0  0  0  0
    8.9008   -6.7153   26.9221 H   0  0  0  0  0  0  0  0  0  0  0  0
    9.5259   -6.3891   25.2699 H   0  0  0  0  0  0  0  0  0  0  0  0
   10.1327   -5.4336   26.6648 H   0  0  0  0  0  0  0  0  0  0  0  0
    7.2856   -5.8175   27.7089 H   0  0  0  0  0  0  0  0  0  0  0  0
    7.6953   -4.0754   27.8615 H   0  0  0  0  0  0  0  0  0  0  0  0
    6.3019   -4.5851   26.8489 H   0  0  0  0  0  0  0  0  0  0  0  0
  1  2  2  0  0  0  0
  2  3  1  0  0  0  0
  2 14  1  0  0  0  0
  3  4  1  0  0  0  0
  3 30  1  0  0  0  0
  3 31  1  0  0  0  0
  4  5  2  0  0  0  0
  4 13  1  0  0  0  0
  5  6  1  0  0  0  0
  5 10  1  0  0  0  0
  6  7  2  0  0  0  0
  6 32  1  0  0  0  0
  7  8  1  0  0  0  0
  7 33  1  0  0  0  0
  8  9  2  0  0  0  0
  8 34  1  0  0  0  0
  9 10  1  0  0  0  0
  9 35  1  0  0  0  0
 10 11  2  0  0  0  0
 11 12  1  0  0  0  0
 11 36  1  0  0  0  0
 12 13  2  0  0  0  0
 13 37  1  0  0  0  0
 14 15  1  0  0  0  0
 14 21  1  0  0  0  0
 15 16  1  0  0  0  0
 15 38  1  0  0  0  0
 15 39  1  0  0  0  0
 16 17  2  0  0  0  0
 16 20  1  0  0  0  0
 17 18  1  0  0  0  0
 17 40  1  0  0  0  0
 18 19  1  0  0  0  0
 19 20  2  0  0  0  0
 19 41  1  0  0  0  0
 20 42  1  0  0  0  0
 21 22  2  0  0  0  0
 21 24  1  0  0  0  0
 22 23  1  0  0  0  0
 22 43  1  0  0  0  0
 23 26  2  0  0  0  0
 23 44  1  0  0  0  0
 24 25  2  0  0  0  0
 24 45  1  0  0  0  0
 25 26  1  0  0  0  0
 25 46  1  0  0  0  0
 26 27  1  0  0  0  0
 27 28  1  0  0  0  0
 27 29  1  0  0  0  0
 28 47  1  0  0  0  0
 28 48  1  0  0  0  0
 28 49  1  0  0  0  0
 29 50  1  0  0  0  0
 29 51  1  0  0  0  0
 29 52  1  0  0  0  0
M  END
> <compound_name>
PET-UNK-1901c25b-1

> <provenance>
{"isomeric_smiles": "CN(C)c1ccc(cc1)N(Cc2ccsc2)C(=O)Cc3cncc4c3cccc4", "inchi": "InChI=1S/C24H23N3OS/c1-26(2)21-7-9-22(10-8-21)27(16-18-11-12-29-17-18)24(28)13-20-15-25-14-19-5-3-4-6-23(19)20/h3-12,14-15,17H,13,16H2,1-2H3", "inchi_key": "NWMNITATBGAXEW-UHFFFAOYSA-N", "fixed_inchi": "InChI=1/C24H23N3OS/c1-26(2)21-7-9-22(10-8-21)27(16-18-11-12-29-17-18)24(28)13-20-15-25-14-19-5-3-4-6-23(19)20/h3-12,14-15,17H,13,16H2,1-2H3", "fixed_inchikey": "NWMNITATBGAXEW-UHFFFAOYNA-N"}

> <data_format>
sdf

$$$$
