LIG(A-305)
  -OEChem-06042511413D

 35 37  0     0  0  0  0  0  0999 V2000
    6.5006    0.5965   17.4463 N   0  0  0  0  0  0  0  0  0  0  0  0
    9.8929   -0.7158   23.3041 N   0  0  0  0  0  0  0  0  0  0  0  0
    5.5048    0.7545   20.0693 C   0  0  0  0  0  0  0  0  0  0  0  0
   13.1850    0.5029   23.8969 C   0  0  0  0  0  0  0  0  0  0  0  0
    9.6350    0.0291   24.4311 C   0  0  0  0  0  0  0  0  0  0  0  0
    4.9128    1.4536   19.0224 C   0  0  0  0  0  0  0  0  0  0  0  0
    8.4348   -0.4237   21.3632 C   0  0  0  0  0  0  0  0  0  0  0  0
    6.6197   -0.0486   19.7613 C   0  0  0  0  0  0  0  0  0  0  0  0
    7.0737   -0.0886   18.4412 C   0  0  0  0  0  0  0  0  0  0  0  0
   11.8280    0.1930   24.0100 C   0  0  0  0  0  0  0  0  0  0  0  0
   13.3328   -0.8700   21.9679 C   0  0  0  0  0  0  0  0  0  0  0  0
   14.1007   -1.4530   21.0088 F   0  0  0  0  0  0  0  0  0  0  0  0
   10.7720    0.5951   24.8921 C   0  0  0  0  0  0  0  0  0  0  0  0
   13.9409   -0.0141   22.8589 C   0  0  0  0  0  0  0  0  0  0  0  0
   11.9988   -1.2049   22.0139 C   0  0  0  0  0  0  0  0  0  0  0  0
    4.9919    0.9025   21.4794 C   0  0  0  0  0  0  0  0  0  0  0  0
    7.2677   -0.7726   20.7862 N   0  0  0  0  0  0  0  0  0  0  0  0
    9.0778    0.5823   21.0631 O   0  0  0  0  0  0  0  0  0  0  0  0
    8.8858   -1.3618   22.4691 C   0  0  0  0  0  0  0  0  0  0  0  0
    5.4377    1.3506   17.7494 C   0  0  0  0  0  0  0  0  0  0  0  0
   11.2489   -0.6439   23.0400 C   0  0  0  0  0  0  0  0  0  0  0  0
   13.6486    1.1515   24.6255 H   0  0  0  0  0  0  0  0  0  0  0  0
    8.6613    0.1454   24.8837 H   0  0  0  0  0  0  0  0  0  0  0  0
    4.0473    2.0735   19.2043 H   0  0  0  0  0  0  0  0  0  0  0  0
    7.9311   -0.7041   18.2125 H   0  0  0  0  0  0  0  0  0  0  0  0
   10.8672    1.2300   25.7605 H   0  0  0  0  0  0  0  0  0  0  0  0
   14.9830    0.2477   22.7503 H   0  0  0  0  0  0  0  0  0  0  0  0
   11.5566   -1.8712   21.2880 H   0  0  0  0  0  0  0  0  0  0  0  0
    4.1451    1.6045   21.4903 H   0  0  0  0  0  0  0  0  0  0  0  0
    4.6606   -0.0774   21.8536 H   0  0  0  0  0  0  0  0  0  0  0  0
    5.7959    1.2881   22.1233 H   0  0  0  0  0  0  0  0  0  0  0  0
    6.8261   -1.6097   21.1091 H   0  0  0  0  0  0  0  0  0  0  0  0
    8.0194   -1.6328   23.0903 H   0  0  0  0  0  0  0  0  0  0  0  0
    9.3146   -2.2704   22.0214 H   0  0  0  0  0  0  0  0  0  0  0  0
    4.9646    1.9090   16.9552 H   0  0  0  0  0  0  0  0  0  0  0  0
  1  9  1  0  0  0  0
  1 20  2  0  0  0  0
  2  5  1  0  0  0  0
  2 19  1  0  0  0  0
  2 21  1  0  0  0  0
  3  6  2  0  0  0  0
  3  8  1  0  0  0  0
  3 16  1  0  0  0  0
  4 10  2  0  0  0  0
  4 14  1  0  0  0  0
  4 22  1  0  0  0  0
  5 13  2  0  0  0  0
  5 23  1  0  0  0  0
  6 20  1  0  0  0  0
  6 24  1  0  0  0  0
  7 17  1  0  0  0  0
  7 18  2  0  0  0  0
  7 19  1  0  0  0  0
  8  9  2  0  0  0  0
  8 17  1  0  0  0  0
  9 25  1  0  0  0  0
 10 13  1  0  0  0  0
 10 21  1  0  0  0  0
 11 12  1  0  0  0  0
 11 14  2  0  0  0  0
 11 15  1  0  0  0  0
 13 26  1  0  0  0  0
 14 27  1  0  0  0  0
 15 21  2  0  0  0  0
 15 28  1  0  0  0  0
 16 29  1  0  0  0  0
 16 30  1  0  0  0  0
 16 31  1  0  0  0  0
 17 32  1  0  0  0  0
 19 33  1  0  0  0  0
 19 34  1  0  0  0  0
 20 35  1  0  0  0  0
M  END
> <compound_name>
BAR-COM-0f94fc3d-18

> <provenance>
{"isomeric_smiles": "Cc1ccncc1NC(=O)Cn2ccc3c2cc(cc3)F", "inchi": "InChI=1S/C16H14FN3O/c1-11-4-6-18-9-14(11)19-16(21)10-20-7-5-12-2-3-13(17)8-15(12)20/h2-9H,10H2,1H3,(H,19,21)", "inchi_key": "FTEMSYPIGWJMTH-UHFFFAOYSA-N", "fixed_inchi": "InChI=1/C16H14FN3O/c1-11-4-6-18-9-14(11)19-16(21)10-20-7-5-12-2-3-13(17)8-15(12)20/h2-9H,10H2,1H3,(H,19,21)/f/h19H", "fixed_inchikey": "FTEMSYPIGWJMTH-LILDFLRNNA-N"}

> <data_format>
sdf

$$$$
