LIG(A-306)
  -OEChem-06042511393D

 33 35  0     0  0  0  0  0  0999 V2000
    9.0151    0.9904   21.0090 O   0  0  0  0  0  0  0  0  0  0  0  0
    8.5115   -0.0891   21.3273 C   0  0  0  0  0  0  0  0  0  0  0  0
    9.1245   -0.9883   22.3842 C   0  0  0  0  0  0  0  0  0  0  0  0
   10.5598   -0.6327   22.6913 C   0  0  0  0  0  0  0  0  0  0  0  0
   10.8765    0.4207   23.5352 C   0  0  0  0  0  0  0  0  0  0  0  0
   12.1257    0.8412   23.7803 N   0  0  0  0  0  0  0  0  0  0  0  0
   13.1322    0.1982   23.1724 C   0  0  0  0  0  0  0  0  0  0  0  0
   11.6133   -1.2997   22.0784 C   0  0  0  0  0  0  0  0  0  0  0  0
   12.9034   -0.8692   22.3084 C   0  0  0  0  0  0  0  0  0  0  0  0
   14.2157   -1.6086   21.4314 Cl  0  0  0  0  0  0  0  0  0  0  0  0
    7.3820   -0.5751   20.7802 N   0  0  0  0  0  0  0  0  0  0  0  0
    6.6000   -0.0049   19.7610 C   0  0  0  0  0  0  0  0  0  0  0  0
    5.4753    0.8017   20.1217 C   0  0  0  0  0  0  0  0  0  0  0  0
    5.0245    0.9779   21.4578 C   0  0  0  0  0  0  0  0  0  0  0  0
    3.9447    1.7693   21.7365 C   0  0  0  0  0  0  0  0  0  0  0  0
    3.2657    2.4265   20.7131 C   0  0  0  0  0  0  0  0  0  0  0  0
    3.6645    2.2894   19.4139 C   0  0  0  0  0  0  0  0  0  0  0  0
    4.7732    1.4699   19.0813 C   0  0  0  0  0  0  0  0  0  0  0  0
    5.2230    1.2737   17.7542 C   0  0  0  0  0  0  0  0  0  0  0  0
    6.2587    0.5132   17.4194 N   0  0  0  0  0  0  0  0  0  0  0  0
    6.9197   -0.1011   18.4068 C   0  0  0  0  0  0  0  0  0  0  0  0
    8.5344   -0.8983   23.3081 H   0  0  0  0  0  0  0  0  0  0  0  0
    9.0884   -2.0277   22.0259 H   0  0  0  0  0  0  0  0  0  0  0  0
   10.0646    0.9358   24.0269 H   0  0  0  0  0  0  0  0  0  0  0  0
   14.1475    0.5165   23.3577 H   0  0  0  0  0  0  0  0  0  0  0  0
   11.4247   -2.1433   21.4310 H   0  0  0  0  0  0  0  0  0  0  0  0
    7.0595   -1.4492   21.1434 H   0  0  0  0  0  0  0  0  0  0  0  0
    5.5420    0.4797   22.2644 H   0  0  0  0  0  0  0  0  0  0  0  0
    3.6157    1.8857   22.7586 H   0  0  0  0  0  0  0  0  0  0  0  0
    2.4162    3.0503   20.9491 H   0  0  0  0  0  0  0  0  0  0  0  0
    3.1305    2.8098   18.6327 H   0  0  0  0  0  0  0  0  0  0  0  0
    4.6886    1.7757   16.9611 H   0  0  0  0  0  0  0  0  0  0  0  0
    7.7639   -0.7176   18.1353 H   0  0  0  0  0  0  0  0  0  0  0  0
  1  2  2  0  0  0  0
  2  3  1  0  0  0  0
  2 11  1  0  0  0  0
  3  4  1  0  0  0  0
  3 22  1  0  0  0  0
  3 23  1  0  0  0  0
  4  5  2  0  0  0  0
  4  8  1  0  0  0  0
  5  6  1  0  0  0  0
  5 24  1  0  0  0  0
  6  7  2  0  0  0  0
  7  9  1  0  0  0  0
  7 25  1  0  0  0  0
  8  9  2  0  0  0  0
  8 26  1  0  0  0  0
  9 10  1  0  0  0  0
 11 12  1  0  0  0  0
 11 27  1  0  0  0  0
 12 13  2  0  0  0  0
 12 21  1  0  0  0  0
 13 14  1  0  0  0  0
 13 18  1  0  0  0  0
 14 15  2  0  0  0  0
 14 28  1  0  0  0  0
 15 16  1  0  0  0  0
 15 29  1  0  0  0  0
 16 17  2  0  0  0  0
 16 30  1  0  0  0  0
 17 18  1  0  0  0  0
 17 31  1  0  0  0  0
 18 19  2  0  0  0  0
 19 20  1  0  0  0  0
 19 32  1  0  0  0  0
 20 21  2  0  0  0  0
 21 33  1  0  0  0  0
M  END
> <compound_name>
RAL-THA-2d450e86-30

> <provenance>
{"isomeric_smiles": "c1ccc2c(c1)cncc2NC(=O)Cc3cc(cnc3)Cl", "inchi": "InChI=1S/C16H12ClN3O/c17-13-5-11(7-18-9-13)6-16(21)20-15-10-19-8-12-3-1-2-4-14(12)15/h1-5,7-10H,6H2,(H,20,21)", "inchi_key": "LPKOUSTWJUXVBF-UHFFFAOYSA-N", "fixed_inchi": "InChI=1/C16H12ClN3O/c17-13-5-11(7-18-9-13)6-16(21)20-15-10-19-8-12-3-1-2-4-14(12)15/h1-5,7-10H,6H2,(H,20,21)/f/h20H", "fixed_inchikey": "LPKOUSTWJUXVBF-UYBDAZJANA-N"}

> <data_format>
sdf

$$$$
