LIG(A-302)
  -OEChem-06042511393D

 33 35  0     0  0  0  0  0  0999 V2000
   14.0802   -1.7310   21.5971 Cl  0  0  0  0  0  0  0  0  0  0  0  0
   12.7400   -0.9754   22.3837 C   0  0  0  0  0  0  0  0  0  0  0  0
   12.9363    0.0405   23.3013 C   0  0  0  0  0  0  0  0  0  0  0  0
   14.5284    0.5480   23.7479 Cl  0  0  0  0  0  0  0  0  0  0  0  0
   11.4582   -1.3650   22.0405 C   0  0  0  0  0  0  0  0  0  0  0  0
   10.3546   -0.7248   22.5918 C   0  0  0  0  0  0  0  0  0  0  0  0
   10.5698    0.2890   23.5124 C   0  0  0  0  0  0  0  0  0  0  0  0
   11.8486    0.6726   23.8646 C   0  0  0  0  0  0  0  0  0  0  0  0
    8.9556   -1.1095   22.1667 C   0  0  0  0  0  0  0  0  0  0  0  0
    8.3073   -0.1612   21.1739 C   0  0  0  0  0  0  0  0  0  0  0  0
    8.7336    0.9684   20.9710 O   0  0  0  0  0  0  0  0  0  0  0  0
    7.2259   -0.6662   20.5554 N   0  0  0  0  0  0  0  0  0  0  0  0
    6.3945   -0.0417   19.6112 C   0  0  0  0  0  0  0  0  0  0  0  0
    5.2768    0.7203   20.0615 C   0  0  0  0  0  0  0  0  0  0  0  0
    4.8572    0.8000   21.4061 C   0  0  0  0  0  0  0  0  0  0  0  0
    3.7582    1.5399   21.7194 C   0  0  0  0  0  0  0  0  0  0  0  0
    3.0310    2.2244   20.8260 N   0  0  0  0  0  0  0  0  0  0  0  0
    3.4117    2.1719   19.5593 C   0  0  0  0  0  0  0  0  0  0  0  0
    4.5224    1.4328   19.0971 C   0  0  0  0  0  0  0  0  0  0  0  0
    4.9229    1.3301   17.7505 C   0  0  0  0  0  0  0  0  0  0  0  0
    5.9408    0.6101   17.3314 N   0  0  0  0  0  0  0  0  0  0  0  0
    6.6461   -0.0553   18.2488 C   0  0  0  0  0  0  0  0  0  0  0  0
   11.3137   -2.1730   21.3386 H   0  0  0  0  0  0  0  0  0  0  0  0
    9.7233    0.7870   23.9615 H   0  0  0  0  0  0  0  0  0  0  0  0
   11.9966    1.4673   24.5809 H   0  0  0  0  0  0  0  0  0  0  0  0
    9.0002   -2.1078   21.7070 H   0  0  0  0  0  0  0  0  0  0  0  0
    8.3233   -1.1478   23.0660 H   0  0  0  0  0  0  0  0  0  0  0  0
    6.9826   -1.6053   20.7982 H   0  0  0  0  0  0  0  0  0  0  0  0
    5.4026    0.2792   22.1793 H   0  0  0  0  0  0  0  0  0  0  0  0
    3.4528    1.5777   22.7546 H   0  0  0  0  0  0  0  0  0  0  0  0
    2.8370    2.7290   18.8343 H   0  0  0  0  0  0  0  0  0  0  0  0
    4.3565    1.8793   17.0129 H   0  0  0  0  0  0  0  0  0  0  0  0
    7.4777   -0.6507   17.9020 H   0  0  0  0  0  0  0  0  0  0  0  0
  1  2  1  0  0  0  0
  2  3  2  0  0  0  0
  2  5  1  0  0  0  0
  3  4  1  0  0  0  0
  3  8  1  0  0  0  0
  5  6  2  0  0  0  0
  5 23  1  0  0  0  0
  6  7  1  0  0  0  0
  6  9  1  0  0  0  0
  7  8  2  0  0  0  0
  7 24  1  0  0  0  0
  8 25  1  0  0  0  0
  9 10  1  0  0  0  0
  9 26  1  0  0  0  0
  9 27  1  0  0  0  0
 10 11  2  0  0  0  0
 10 12  1  0  0  0  0
 12 13  1  0  0  0  0
 12 28  1  0  0  0  0
 13 14  2  0  0  0  0
 13 22  1  0  0  0  0
 14 15  1  0  0  0  0
 14 19  1  0  0  0  0
 15 16  2  0  0  0  0
 15 29  1  0  0  0  0
 16 17  1  0  0  0  0
 16 30  1  0  0  0  0
 17 18  2  0  0  0  0
 18 19  1  0  0  0  0
 18 31  1  0  0  0  0
 19 20  2  0  0  0  0
 20 21  1  0  0  0  0
 20 32  1  0  0  0  0
 21 22  2  0  0  0  0
 22 33  1  0  0  0  0
M  END
> <compound_name>
VLA-UNK-82501c2c-1

> <provenance>
{"isomeric_smiles": "c1cc(c(cc1CC(=O)Nc2cncc3c2ccnc3)Cl)Cl", "inchi": "InChI=1S/C16H11Cl2N3O/c17-13-2-1-10(5-14(13)18)6-16(22)21-15-9-20-8-11-7-19-4-3-12(11)15/h1-5,7-9H,6H2,(H,21,22)", "inchi_key": "IOZNTHKFTJIBSE-UHFFFAOYSA-N", "fixed_inchi": "InChI=1/C16H11Cl2N3O/c17-13-2-1-10(5-14(13)18)6-16(22)21-15-9-20-8-11-7-19-4-3-12(11)15/h1-5,7-9H,6H2,(H,21,22)/f/h21H", "fixed_inchikey": "IOZNTHKFTJIBSE-PKSOQXRJNA-N"}

> <data_format>
sdf

$$$$
