LIG(A-305)
  -OEChem-06042511303D

 34 36  0     1  0  0  0  0  0999 V2000
   13.9358   -1.8548   21.2698 Cl  0  0  0  0  0  0  0  0  0  0  0  0
   12.7877   -1.0139   22.2568 C   0  0  0  0  0  0  0  0  0  0  0  0
   13.2346   -0.0209   23.1128 C   0  0  0  0  0  0  0  0  0  0  0  0
   12.3226    0.6700   23.8898 C   0  0  0  0  0  0  0  0  0  0  0  0
   11.4557   -1.3460   22.1557 C   0  0  0  0  0  0  0  0  0  0  0  0
   10.5387   -0.6330   22.9107 C   0  0  0  0  0  0  0  0  0  0  0  0
   10.9826    0.3639   23.7568 C   0  0  0  0  0  0  0  0  0  0  0  0
    9.9185    1.0319   24.3258 O   0  0  0  0  0  0  0  0  0  0  0  0
    8.7326    0.2038   24.1517 C   0  0  0  0  0  0  0  0  0  0  0  0
    9.0337   -0.6561   22.9256 C   0  0  1  0  0  0  0  0  0  0  0  0
    8.5877    0.0399   21.6417 C   0  0  0  0  0  0  0  0  0  0  0  0
    9.1236    1.0680   21.2307 O   0  0  0  0  0  0  0  0  0  0  0  0
    7.5437   -0.5411   21.0456 N   0  0  0  0  0  0  0  0  0  0  0  0
    6.8398    0.0469   19.9836 C   0  0  0  0  0  0  0  0  0  0  0  0
    5.6527    0.7398   20.2526 C   0  0  0  0  0  0  0  0  0  0  0  0
    5.1476    0.9237   21.6646 C   0  0  0  0  0  0  0  0  0  0  0  0
    4.0116    1.7777   21.7476 O   0  0  0  0  0  0  0  0  0  0  0  0
    7.2998   -0.0210   18.6736 C   0  0  0  0  0  0  0  0  0  0  0  0
    6.6478    0.5290   17.6486 N   0  0  0  0  0  0  0  0  0  0  0  0
    5.5058    1.1739   17.9116 C   0  0  0  0  0  0  0  0  0  0  0  0
    4.9737    1.2968   19.1786 C   0  0  0  0  0  0  0  0  0  0  0  0
   14.2875    0.2121   23.1732 H   0  0  0  0  0  0  0  0  0  0  0  0
   12.6503    1.4301   24.5835 H   0  0  0  0  0  0  0  0  0  0  0  0
   11.1331   -2.1436   21.5031 H   0  0  0  0  0  0  0  0  0  0  0  0
    8.5677   -0.4278   25.0370 H   0  0  0  0  0  0  0  0  0  0  0  0
    7.8451    0.8299   23.9774 H   0  0  0  0  0  0  0  0  0  0  0  0
    8.6243   -1.6732   23.0157 H   0  0  0  0  0  0  0  0  0  0  0  0
    7.2491   -1.4393   21.3719 H   0  0  0  0  0  0  0  0  0  0  0  0
    4.8743   -0.0620   22.0691 H   0  0  0  0  0  0  0  0  0  0  0  0
    5.9561    1.3576   22.2712 H   0  0  0  0  0  0  0  0  0  0  0  0
    4.2921    2.6841   21.7006 H   0  0  0  0  0  0  0  0  0  0  0  0
    8.2254   -0.5418   18.4775 H   0  0  0  0  0  0  0  0  0  0  0  0
    4.9713    1.6227   17.0874 H   0  0  0  0  0  0  0  0  0  0  0  0
    4.0413    1.8196   19.3323 H   0  0  0  0  0  0  0  0  0  0  0  0
  1  2  1  0  0  0  0
  2  3  2  0  0  0  0
  2  5  1  0  0  0  0
  3  4  1  0  0  0  0
  3 22  1  0  0  0  0
  4  7  2  0  0  0  0
  4 23  1  0  0  0  0
  5  6  2  0  0  0  0
  5 24  1  0  0  0  0
  6  7  1  0  0  0  0
  6 10  1  0  0  0  0
  7  8  1  0  0  0  0
  8  9  1  0  0  0  0
  9 10  1  0  0  0  0
  9 25  1  0  0  0  0
  9 26  1  0  0  0  0
 10 11  1  0  0  0  0
 10 27  1  0  0  0  0
 11 12  2  0  0  0  0
 11 13  1  0  0  0  0
 13 14  1  0  0  0  0
 13 28  1  0  0  0  0
 14 15  2  0  0  0  0
 14 18  1  0  0  0  0
 15 16  1  0  0  0  0
 15 21  1  0  0  0  0
 16 17  1  0  0  0  0
 16 29  1  0  0  0  0
 16 30  1  0  0  0  0
 17 31  1  0  0  0  0
 18 19  2  0  0  0  0
 18 32  1  0  0  0  0
 19 20  1  0  0  0  0
 20 21  2  0  0  0  0
 20 33  1  0  0  0  0
 21 34  1  0  0  0  0
M  END
> <compound_name>
JAG-UCB-a3ef7265-3

> <provenance>
{"isomeric_smiles": "c1cc2c(cc1Cl)[C@@H](CO2)C(=O)Nc3cnccc3CO", "inchi": "InChI=1S/C15H13ClN2O3/c16-10-1-2-14-11(5-10)12(8-21-14)15(20)18-13-6-17-4-3-9(13)7-19/h1-6,12,19H,7-8H2,(H,18,20)/t12-/m1/s1", "inchi_key": "BWTWLKMAKBVNDU-GFCCVEGCSA-N", "fixed_inchi": "InChI=1/C15H13ClN2O3/c16-10-1-2-14-11(5-10)12(8-21-14)15(20)18-13-6-17-4-3-9(13)7-19/h1-6,12,19H,7-8H2,(H,18,20)/t12-/m1/s1/f/h18H", "fixed_inchikey": "BWTWLKMAKBVNDU-XNPWSKJTNA-N"}

> <data_format>
sdf

$$$$
