LIG(A-306)
  -OEChem-06042511383D

 39 42  0     1  0  0  0  0  0999 V2000
    8.7692    0.9247   21.1544 O   0  0  0  0  0  0  0  0  0  0  0  0
    8.3146   -0.1859   21.4187 C   0  0  0  0  0  0  0  0  0  0  0  0
    8.8707   -1.0460   22.5586 C   0  0  2  0  0  0  0  0  0  0  0  0
    8.0819   -0.8588   23.8691 C   0  0  0  0  0  0  0  0  0  0  0  0
    8.3334    0.5181   24.4395 C   0  0  0  0  0  0  0  0  0  0  0  0
    9.7415    0.8235   24.6207 O   0  0  0  0  0  0  0  0  0  0  0  0
   10.3229   -0.6915   22.7976 C   0  0  0  0  0  0  0  0  0  0  0  0
   10.6678    0.2192   23.8048 C   0  0  0  0  0  0  0  0  0  0  0  0
   12.0050    0.5247   24.0330 C   0  0  0  0  0  0  0  0  0  0  0  0
   12.4422    1.5330   25.3769 Cl  0  0  0  0  0  0  0  0  0  0  0  0
   13.0083   -0.0385   23.2710 C   0  0  0  0  0  0  0  0  0  0  0  0
   11.3432   -1.2777   22.0487 C   0  0  0  0  0  0  0  0  0  0  0  0
   12.6584   -0.9402   22.2898 C   0  0  0  0  0  0  0  0  0  0  0  0
   13.9095   -1.6547   21.3128 Cl  0  0  0  0  0  0  0  0  0  0  0  0
    7.2909   -0.7531   20.7376 N   0  0  0  0  0  0  0  0  0  0  0  0
    6.5499   -0.2119   19.6714 C   0  0  0  0  0  0  0  0  0  0  0  0
    5.4541    0.6565   19.9690 C   0  0  0  0  0  0  0  0  0  0  0  0
    4.9373    0.8586   21.2782 C   0  0  0  0  0  0  0  0  0  0  0  0
    3.9185    1.7429   21.5037 C   0  0  0  0  0  0  0  0  0  0  0  0
    3.3585    2.4622   20.4540 C   0  0  0  0  0  0  0  0  0  0  0  0
    3.8093    2.2890   19.1748 C   0  0  0  0  0  0  0  0  0  0  0  0
    4.8631    1.3796   18.8974 C   0  0  0  0  0  0  0  0  0  0  0  0
    5.3758    1.1615   17.5952 C   0  0  0  0  0  0  0  0  0  0  0  0
    6.3696    0.3321   17.3137 N   0  0  0  0  0  0  0  0  0  0  0  0
    6.9266   -0.3332   18.3333 C   0  0  0  0  0  0  0  0  0  0  0  0
    8.8080   -2.1035   22.2622 H   0  0  0  0  0  0  0  0  0  0  0  0
    7.0073   -0.9769   23.6660 H   0  0  0  0  0  0  0  0  0  0  0  0
    8.4031   -1.6178   24.5976 H   0  0  0  0  0  0  0  0  0  0  0  0
    7.9013    1.2627   23.7547 H   0  0  0  0  0  0  0  0  0  0  0  0
    7.8341    0.5860   25.4173 H   0  0  0  0  0  0  0  0  0  0  0  0
   14.0429    0.2213   23.4398 H   0  0  0  0  0  0  0  0  0  0  0  0
   11.1030   -1.9965   21.2792 H   0  0  0  0  0  0  0  0  0  0  0  0
    7.0286   -1.6729   21.0294 H   0  0  0  0  0  0  0  0  0  0  0  0
    5.3554    0.3059   22.1065 H   0  0  0  0  0  0  0  0  0  0  0  0
    3.5453    1.8839   22.5073 H   0  0  0  0  0  0  0  0  0  0  0  0
    2.5608    3.1633   20.6506 H   0  0  0  0  0  0  0  0  0  0  0  0
    3.3595    2.8493   18.3684 H   0  0  0  0  0  0  0  0  0  0  0  0
    4.9272    1.7071   16.7783 H   0  0  0  0  0  0  0  0  0  0  0  0
    7.7301   -1.0169   18.1021 H   0  0  0  0  0  0  0  0  0  0  0  0
  1  2  2  0  0  0  0
  2  3  1  0  0  0  0
  2 15  1  0  0  0  0
  3  4  1  0  0  0  0
  3  7  1  0  0  0  0
  3 26  1  0  0  0  0
  4  5  1  0  0  0  0
  4 27  1  0  0  0  0
  4 28  1  0  0  0  0
  5  6  1  0  0  0  0
  5 29  1  0  0  0  0
  5 30  1  0  0  0  0
  6  8  1  0  0  0  0
  7  8  2  0  0  0  0
  7 12  1  0  0  0  0
  8  9  1  0  0  0  0
  9 10  1  0  0  0  0
  9 11  2  0  0  0  0
 11 13  1  0  0  0  0
 11 31  1  0  0  0  0
 12 13  2  0  0  0  0
 12 32  1  0  0  0  0
 13 14  1  0  0  0  0
 15 16  1  0  0  0  0
 15 33  1  0  0  0  0
 16 17  2  0  0  0  0
 16 25  1  0  0  0  0
 17 18  1  0  0  0  0
 17 22  1  0  0  0  0
 18 19  2  0  0  0  0
 18 34  1  0  0  0  0
 19 20  1  0  0  0  0
 19 35  1  0  0  0  0
 20 21  2  0  0  0  0
 20 36  1  0  0  0  0
 21 22  1  0  0  0  0
 21 37  1  0  0  0  0
 22 23  2  0  0  0  0
 23 24  1  0  0  0  0
 23 38  1  0  0  0  0
 24 25  2  0  0  0  0
 25 39  1  0  0  0  0
M  END
> <compound_name>
ALP-UNI-3735e77e-2

> <provenance>
{"isomeric_smiles": "c1ccc2c(c1)cncc2NC(=O)[C@@H]3CCOc4c3cc(cc4Cl)Cl", "inchi": "InChI=1S/C19H14Cl2N2O2/c20-12-7-15-14(5-6-25-18(15)16(21)8-12)19(24)23-17-10-22-9-11-3-1-2-4-13(11)17/h1-4,7-10,14H,5-6H2,(H,23,24)/t14-/m1/s1", "inchi_key": "UETIOCMJDODDEB-CQSZACIVSA-N", "fixed_inchi": "InChI=1/C19H14Cl2N2O2/c20-12-7-15-14(5-6-25-18(15)16(21)8-12)19(24)23-17-10-22-9-11-3-1-2-4-13(11)17/h1-4,7-10,14H,5-6H2,(H,23,24)/t14-/m1/s1/f/h23H", "fixed_inchikey": "UETIOCMJDODDEB-NFBKTVIUNA-N"}

> <data_format>
sdf

$$$$
