LIG(A-305)
  -OEChem-06042511323D

 46 49  0     0  0  0  0  0  0999 V2000
   13.6225   -0.7863   21.8874 S   0  0  0  0  0  0  0  0  0  0  0  0
    8.8186   -4.9498   26.0100 N   0  0  0  0  0  0  0  0  0  0  0  0
    7.5821   -0.4759   18.8210 N   0  0  0  0  0  0  0  0  0  0  0  0
    7.1103   -0.4198   20.0921 N   0  0  0  0  0  0  0  0  0  0  0  0
    8.9296   -3.7758   25.2870 C   0  0  0  0  0  0  0  0  0  0  0  0
   11.9615   -0.5541   22.1706 C   0  0  0  0  0  0  0  0  0  0  0  0
    5.1945    0.8204   21.1853 C   0  0  0  0  0  0  0  0  0  0  0  0
   11.7097    0.3669   23.1496 C   0  0  0  0  0  0  0  0  0  0  0  0
    8.0687   -2.6997   25.5171 C   0  0  0  0  0  0  0  0  0  0  0  0
    9.8615   -3.6929   24.2589 C   0  0  0  0  0  0  0  0  0  0  0  0
    3.9244    2.0664   19.5404 C   0  0  0  0  0  0  0  0  0  0  0  0
    9.9325   -2.5589   23.4698 C   0  0  0  0  0  0  0  0  0  0  0  0
    9.0996   -1.4699   23.7139 C   0  0  0  0  0  0  0  0  0  0  0  0
   14.0287    0.3847   23.1053 C   0  0  0  0  0  0  0  0  0  0  0  0
    7.9014   -0.9908   21.1580 C   0  0  0  0  0  0  0  0  0  0  0  0
    4.1345    1.6574   20.8564 C   0  0  0  0  0  0  0  0  0  0  0  0
   12.9108    0.9078   23.6834 C   0  0  0  0  0  0  0  0  0  0  0  0
    8.8075    0.0601   21.7909 C   0  0  0  0  0  0  0  0  0  0  0  0
    6.0294    0.4053   20.1542 C   0  0  0  0  0  0  0  0  0  0  0  0
    5.8442    0.8242   18.8412 C   0  0  0  0  0  0  0  0  0  0  0  0
    7.7747   -5.2187   26.9732 C   0  0  0  0  0  0  0  0  0  0  0  0
    9.3306   -0.2379   23.0168 N   0  0  0  0  0  0  0  0  0  0  0  0
    9.0625    1.0991   21.1958 O   0  0  0  0  0  0  0  0  0  0  0  0
   10.3018    0.6920   23.5807 C   0  0  0  0  0  0  0  0  0  0  0  0
    8.1517   -1.5568   24.7350 C   0  0  0  0  0  0  0  0  0  0  0  0
    4.7813    1.6643   18.5223 C   0  0  0  0  0  0  0  0  0  0  0  0
    6.8291    0.2651   18.0581 N   0  0  0  0  0  0  0  0  0  0  0  0
    9.6975   -5.3682   26.2390 H   0  0  0  0  0  0  0  0  0  0  0  0
   11.1861   -1.0796   21.6330 H   0  0  0  0  0  0  0  0  0  0  0  0
    5.3632    0.5043   22.2041 H   0  0  0  0  0  0  0  0  0  0  0  0
    7.3351   -2.7579   26.3075 H   0  0  0  0  0  0  0  0  0  0  0  0
   10.5336   -4.5182   24.0752 H   0  0  0  0  0  0  0  0  0  0  0  0
    3.0844    2.7044   19.3087 H   0  0  0  0  0  0  0  0  0  0  0  0
   10.6413   -2.5178   22.6560 H   0  0  0  0  0  0  0  0  0  0  0  0
   15.0381    0.6626   23.3703 H   0  0  0  0  0  0  0  0  0  0  0  0
    7.2282   -1.3959   21.9280 H   0  0  0  0  0  0  0  0  0  0  0  0
    8.5222   -1.8022   20.7501 H   0  0  0  0  0  0  0  0  0  0  0  0
    3.4637    1.9960   21.6321 H   0  0  0  0  0  0  0  0  0  0  0  0
   12.9350    1.6539   24.4640 H   0  0  0  0  0  0  0  0  0  0  0  0
    7.9203   -6.2210   27.4023 H   0  0  0  0  0  0  0  0  0  0  0  0
    7.8138   -4.4672   27.7755 H   0  0  0  0  0  0  0  0  0  0  0  0
    6.7952   -5.1721   26.4747 H   0  0  0  0  0  0  0  0  0  0  0  0
   10.0540    1.7105   23.2467 H   0  0  0  0  0  0  0  0  0  0  0  0
   10.2458    0.6423   24.6781 H   0  0  0  0  0  0  0  0  0  0  0  0
    7.4801   -0.7308   24.9170 H   0  0  0  0  0  0  0  0  0  0  0  0
    4.6257    1.9964   17.5065 H   0  0  0  0  0  0  0  0  0  0  0  0
  1  6  1  0  0  0  0
  1 14  1  0  0  0  0
  2  5  1  0  0  0  0
  2 21  1  0  0  0  0
  2 28  1  0  0  0  0
  3  4  1  0  0  0  0
  3 27  2  0  0  0  0
  4 15  1  0  0  0  0
  4 19  1  0  0  0  0
  5  9  2  0  0  0  0
  5 10  1  0  0  0  0
  6  8  2  0  0  0  0
  6 29  1  0  0  0  0
  7 16  1  0  0  0  0
  7 19  2  0  0  0  0
  7 30  1  0  0  0  0
  8 17  1  0  0  0  0
  8 24  1  0  0  0  0
  9 25  1  0  0  0  0
  9 31  1  0  0  0  0
 10 12  2  0  0  0  0
 10 32  1  0  0  0  0
 11 16  2  0  0  0  0
 11 26  1  0  0  0  0
 11 33  1  0  0  0  0
 12 13  1  0  0  0  0
 12 34  1  0  0  0  0
 13 22  1  0  0  0  0
 13 25  2  0  0  0  0
 14 17  2  0  0  0  0
 14 35  1  0  0  0  0
 15 18  1  0  0  0  0
 15 36  1  0  0  0  0
 15 37  1  0  0  0  0
 16 38  1  0  0  0  0
 17 39  1  0  0  0  0
 18 22  1  0  0  0  0
 18 23  2  0  0  0  0
 19 20  1  0  0  0  0
 20 26  2  0  0  0  0
 20 27  1  0  0  0  0
 21 40  1  0  0  0  0
 21 41  1  0  0  0  0
 21 42  1  0  0  0  0
 22 24  1  0  0  0  0
 24 43  1  0  0  0  0
 24 44  1  0  0  0  0
 25 45  1  0  0  0  0
 26 46  1  0  0  0  0
M  END
> <compound_name>
ALP-POS-c59291d4-4

> <provenance>
{"isomeric_smiles": "CNc1ccc(cc1)N(Cc2ccsc2)C(=O)Cn3c4ccccc4nn3", "inchi": "InChI=1S/C20H19N5OS/c1-21-16-6-8-17(9-7-16)24(12-15-10-11-27-14-15)20(26)13-25-19-5-3-2-4-18(19)22-23-25/h2-11,14,21H,12-13H2,1H3", "inchi_key": "RMLYDSUPMGBCJP-UHFFFAOYSA-N", "fixed_inchi": "InChI=1/C20H19N5OS/c1-21-16-6-8-17(9-7-16)24(12-15-10-11-27-14-15)20(26)13-25-19-5-3-2-4-18(19)22-23-25/h2-11,14,21H,12-13H2,1H3", "fixed_inchikey": "RMLYDSUPMGBCJP-UHFFFAOYNA-N"}

> <data_format>
sdf

$$$$
