LIG(A-305)
  -OEChem-06042511343D

 43 45  0     0  0  0  0  0  0999 V2000
    6.5701    1.0671   16.7796 O   0  0  0  0  0  0  0  0  0  0  0  0
    5.9821    0.8061   17.8346 C   0  0  0  0  0  0  0  0  0  0  0  0
    6.3681   -0.2408   18.7166 C   0  0  0  0  0  0  0  0  0  0  0  0
    4.9481    1.5991   18.2626 N   0  0  0  0  0  0  0  0  0  0  0  0
    4.3121    1.4662   19.4956 C   0  0  0  0  0  0  0  0  0  0  0  0
    4.7431    0.4712   20.3926 C   0  0  0  0  0  0  0  0  0  0  0  0
    4.1321    0.3682   21.6457 C   0  0  0  0  0  0  0  0  0  0  0  0
    3.0741    1.2022   21.9686 C   0  0  0  0  0  0  0  0  0  0  0  0
    2.6241    2.1422   21.0646 C   0  0  0  0  0  0  0  0  0  0  0  0
    3.2451    2.2912   19.8356 C   0  0  0  0  0  0  0  0  0  0  0  0
    5.7981   -0.4248   19.9347 C   0  0  0  0  0  0  0  0  0  0  0  0
    6.2201   -1.5808   20.7487 C   0  0  0  0  0  0  0  0  0  0  0  0
    5.4911   -2.5618   20.8857 O   0  0  0  0  0  0  0  0  0  0  0  0
    7.4091   -1.4758   21.3387 N   0  0  0  0  0  0  0  0  0  0  0  0
    7.9311   -2.5138   22.2127 C   0  0  0  0  0  0  0  0  0  0  0  0
    9.4281   -2.4667   22.2757 C   0  0  0  0  0  0  0  0  0  0  0  0
    9.8022   -1.1217   22.6126 O   0  0  0  0  0  0  0  0  0  0  0  0
   11.1342   -0.7817   22.6386 C   0  0  0  0  0  0  0  0  0  0  0  0
   11.4212    0.5063   23.1366 C   0  0  0  0  0  0  0  0  0  0  0  0
   10.3302    1.2363   23.5245 O   0  0  0  0  0  0  0  0  0  0  0  0
   10.5492    2.5653   24.0055 C   0  0  0  0  0  0  0  0  0  0  0  0
   12.1671   -1.5888   22.1756 C   0  0  0  0  0  0  0  0  0  0  0  0
   13.4661   -1.1057   22.1776 C   0  0  0  0  0  0  0  0  0  0  0  0
   13.7482    0.1573   22.6645 C   0  0  0  0  0  0  0  0  0  0  0  0
   12.7332    0.9633   23.1595 C   0  0  0  0  0  0  0  0  0  0  0  0
    7.1484   -0.9188   18.4036 H   0  0  0  0  0  0  0  0  0  0  0  0
    4.6279    2.3204   17.6439 H   0  0  0  0  0  0  0  0  0  0  0  0
    4.4843   -0.3604   22.3609 H   0  0  0  0  0  0  0  0  0  0  0  0
    2.5986    1.1160   22.9345 H   0  0  0  0  0  0  0  0  0  0  0  0
    1.7804    2.7672   21.3174 H   0  0  0  0  0  0  0  0  0  0  0  0
    2.9019    3.0457   19.1433 H   0  0  0  0  0  0  0  0  0  0  0  0
    7.9602   -0.6575   21.1755 H   0  0  0  0  0  0  0  0  0  0  0  0
    7.5247   -2.3688   23.2245 H   0  0  0  0  0  0  0  0  0  0  0  0
    7.6187   -3.4964   21.8293 H   0  0  0  0  0  0  0  0  0  0  0  0
    9.7941   -3.1626   23.0450 H   0  0  0  0  0  0  0  0  0  0  0  0
    9.8542   -2.7421   21.2997 H   0  0  0  0  0  0  0  0  0  0  0  0
    9.5855    3.0211   24.2766 H   0  0  0  0  0  0  0  0  0  0  0  0
   11.2009    2.5319   24.8910 H   0  0  0  0  0  0  0  0  0  0  0  0
   11.0300    3.1652   23.2188 H   0  0  0  0  0  0  0  0  0  0  0  0
   11.9586   -2.5858   21.8166 H   0  0  0  0  0  0  0  0  0  0  0  0
   14.2662   -1.7221   21.7949 H   0  0  0  0  0  0  0  0  0  0  0  0
   14.7658    0.5190   22.6595 H   0  0  0  0  0  0  0  0  0  0  0  0
   12.9614    1.9399   23.5602 H   0  0  0  0  0  0  0  0  0  0  0  0
  1  2  2  0  0  0  0
  2  3  1  0  0  0  0
  2  4  1  0  0  0  0
  3 11  2  0  0  0  0
  3 26  1  0  0  0  0
  4  5  1  0  0  0  0
  4 27  1  0  0  0  0
  5  6  2  0  0  0  0
  5 10  1  0  0  0  0
  6  7  1  0  0  0  0
  6 11  1  0  0  0  0
  7  8  2  0  0  0  0
  7 28  1  0  0  0  0
  8  9  1  0  0  0  0
  8 29  1  0  0  0  0
  9 10  2  0  0  0  0
  9 30  1  0  0  0  0
 10 31  1  0  0  0  0
 11 12  1  0  0  0  0
 12 13  2  0  0  0  0
 12 14  1  0  0  0  0
 14 15  1  0  0  0  0
 14 32  1  0  0  0  0
 15 16  1  0  0  0  0
 15 33  1  0  0  0  0
 15 34  1  0  0  0  0
 16 17  1  0  0  0  0
 16 35  1  0  0  0  0
 16 36  1  0  0  0  0
 17 18  1  0  0  0  0
 18 19  2  0  0  0  0
 18 22  1  0  0  0  0
 19 20  1  0  0  0  0
 19 25  1  0  0  0  0
 20 21  1  0  0  0  0
 21 37  1  0  0  0  0
 21 38  1  0  0  0  0
 21 39  1  0  0  0  0
 22 23  2  0  0  0  0
 22 40  1  0  0  0  0
 23 24  1  0  0  0  0
 23 41  1  0  0  0  0
 24 25  2  0  0  0  0
 24 42  1  0  0  0  0
 25 43  1  0  0  0  0
M  END
> <compound_name>
MAT-POS-916a2c5a-2

> <provenance>
{"isomeric_smiles": "COc1ccccc1OCCNC(=O)c2cc(=O)[nH]c3c2cccc3", "inchi": "InChI=1S/C19H18N2O4/c1-24-16-8-4-5-9-17(16)25-11-10-20-19(23)14-12-18(22)21-15-7-3-2-6-13(14)15/h2-9,12H,10-11H2,1H3,(H,20,23)(H,21,22)", "inchi_key": "IOKPKVSTRDCKNE-UHFFFAOYSA-N", "fixed_inchi": "InChI=1/C19H18N2O4/c1-24-16-8-4-5-9-17(16)25-11-10-20-19(23)14-12-18(22)21-15-7-3-2-6-13(14)15/h2-9,12H,10-11H2,1H3,(H,20,23)(H,21,22)/f/h20-21H", "fixed_inchikey": "IOKPKVSTRDCKNE-BDGWVKIONA-N"}

> <data_format>
sdf

$$$$
