LIG(A-305)
  -OEChem-06042511353D

 28 29  0     1  0  0  0  0  0999 V2000
   13.8485   -1.8642   21.3596 Cl  0  0  0  0  0  0  0  0  0  0  0  0
   12.6594   -0.9763   22.2776 C   0  0  0  0  0  0  0  0  0  0  0  0
   13.0634    0.0807   23.0646 C   0  0  0  0  0  0  0  0  0  0  0  0
   12.1063    0.7696   23.7936 C   0  0  0  0  0  0  0  0  0  0  0  0
   10.7673    0.4176   23.6996 C   0  0  0  0  0  0  0  0  0  0  0  0
   11.3324   -1.3483   22.1875 C   0  0  0  0  0  0  0  0  0  0  0  0
   10.3644   -0.6214   22.8735 C   0  0  0  0  0  0  0  0  0  0  0  0
    8.9044   -0.8464   22.5625 C   0  0  0  0  0  0  0  0  0  0  0  0
    8.5104   -0.3364   21.1705 C   0  0  2  0  0  0  0  0  0  0  0  0
    8.8834    1.0447   21.0475 O   0  0  0  0  0  0  0  0  0  0  0  0
    7.0135   -0.5124   20.9424 C   0  0  0  0  0  0  0  0  0  0  0  0
    6.5875   -0.0264   19.6334 N   0  0  0  0  0  0  0  0  0  0  0  0
    5.5365    0.8226   19.5174 N   0  0  0  0  0  0  0  0  0  0  0  0
    5.5115    1.0517   18.2244 C   0  0  0  0  0  0  0  0  0  0  0  0
    6.4626    0.4197   17.5054 N   0  0  0  0  0  0  0  0  0  0  0  0
    7.1085   -0.2523   18.4314 C   0  0  0  0  0  0  0  0  0  0  0  0
   14.1039    0.3662   23.1125 H   0  0  0  0  0  0  0  0  0  0  0  0
   12.4042    1.5839   24.4375 H   0  0  0  0  0  0  0  0  0  0  0  0
   10.0311    0.9584   24.2756 H   0  0  0  0  0  0  0  0  0  0  0  0
   11.0474   -2.1997   21.5873 H   0  0  0  0  0  0  0  0  0  0  0  0
    8.6958   -1.9252   22.6140 H   0  0  0  0  0  0  0  0  0  0  0  0
    8.2991   -0.3194   23.3146 H   0  0  0  0  0  0  0  0  0  0  0  0
    9.0490   -0.9324   20.4190 H   0  0  0  0  0  0  0  0  0  0  0  0
    8.1014    1.5791   20.9747 H   0  0  0  0  0  0  0  0  0  0  0  0
    6.7682   -1.5820   21.0188 H   0  0  0  0  0  0  0  0  0  0  0  0
    6.4701    0.0448   21.7198 H   0  0  0  0  0  0  0  0  0  0  0  0
    4.7797    1.7015   17.7677 H   0  0  0  0  0  0  0  0  0  0  0  0
    7.9505   -0.9016   18.2414 H   0  0  0  0  0  0  0  0  0  0  0  0
  1  2  1  0  0  0  0
  2  3  2  0  0  0  0
  2  6  1  0  0  0  0
  3  4  1  0  0  0  0
  3 17  1  0  0  0  0
  4  5  2  0  0  0  0
  4 18  1  0  0  0  0
  5  7  1  0  0  0  0
  5 19  1  0  0  0  0
  6  7  2  0  0  0  0
  6 20  1  0  0  0  0
  7  8  1  0  0  0  0
  8  9  1  0  0  0  0
  8 21  1  0  0  0  0
  8 22  1  0  0  0  0
  9 10  1  0  0  0  0
  9 11  1  0  0  0  0
  9 23  1  0  0  0  0
 10 24  1  0  0  0  0
 11 12  1  0  0  0  0
 11 25  1  0  0  0  0
 11 26  1  0  0  0  0
 12 13  1  0  0  0  0
 12 16  1  0  0  0  0
 13 14  2  0  0  0  0
 14 15  1  0  0  0  0
 14 27  1  0  0  0  0
 15 16  2  0  0  0  0
 16 28  1  0  0  0  0
M  END
> <compound_name>
JAG-UCB-cedd89ab-2

> <provenance>
{"isomeric_smiles": "c1cc(cc(c1)Cl)C[C@@H](Cn2cncn2)O", "inchi": "InChI=1S/C11H12ClN3O/c12-10-3-1-2-9(4-10)5-11(16)6-15-8-13-7-14-15/h1-4,7-8,11,16H,5-6H2/t11-/m0/s1", "inchi_key": "PZYJRCQIDAUQHX-NSHDSACASA-N", "fixed_inchi": "InChI=1/C11H12ClN3O/c12-10-3-1-2-9(4-10)5-11(16)6-15-8-13-7-14-15/h1-4,7-8,11,16H,5-6H2/t11-/m0/s1", "fixed_inchikey": "PZYJRCQIDAUQHX-NSHDSACANA-N"}

> <data_format>
sdf

$$$$
