LIG(A-306)
  -OEChem-06042511413D

 36 38  0     0  0  0  0  0  0999 V2000
   14.0327   -1.4582   21.5554 Cl  0  0  0  0  0  0  0  0  0  0  0  0
   12.7575   -0.7492   22.5073 C   0  0  0  0  0  0  0  0  0  0  0  0
   13.0778    0.1722   23.4859 C   0  0  0  0  0  0  0  0  0  0  0  0
   12.0622    0.6725   24.2847 C   0  0  0  0  0  0  0  0  0  0  0  0
   10.7492    0.2784   24.0730 C   0  0  0  0  0  0  0  0  0  0  0  0
   11.4546   -1.1512   22.2867 C   0  0  0  0  0  0  0  0  0  0  0  0
   10.4290   -0.6218   23.0626 C   0  0  0  0  0  0  0  0  0  0  0  0
    8.9881   -0.9551   22.7493 C   0  0  0  0  0  0  0  0  0  0  0  0
    8.4208   -0.0763   21.6539 C   0  0  0  0  0  0  0  0  0  0  0  0
    8.9650    0.9762   21.3100 O   0  0  0  0  0  0  0  0  0  0  0  0
    7.2946   -0.5500   21.0868 N   0  0  0  0  0  0  0  0  0  0  0  0
    6.6273   -0.0489   19.9525 C   0  0  0  0  0  0  0  0  0  0  0  0
    7.0806   -0.2263   18.6454 C   0  0  0  0  0  0  0  0  0  0  0  0
    6.5125    0.3114   17.5573 N   0  0  0  0  0  0  0  0  0  0  0  0
    5.4512    1.0838   17.7374 C   0  0  0  0  0  0  0  0  0  0  0  0
    4.8762    1.3678   19.0010 C   0  0  0  0  0  0  0  0  0  0  0  0
    5.4682    0.7617   20.1448 C   0  0  0  0  0  0  0  0  0  0  0  0
    4.8711    0.9977   21.4102 C   0  0  0  0  0  0  0  0  0  0  0  0
    3.7698    1.7935   21.5335 C   0  0  0  0  0  0  0  0  0  0  0  0
    3.7511    2.2054   19.1695 C   0  0  0  0  0  0  0  0  0  0  0  0
    3.1989    2.4144   20.4097 C   0  0  0  0  0  0  0  0  0  0  0  0
    1.9898    3.2794   20.5453 C   0  0  0  0  0  0  0  0  0  0  0  0
    1.6062    4.0059   19.6231 O   0  0  0  0  0  0  0  0  0  0  0  0
    1.3559    3.1781   21.6830 O   0  5  0  0  0  0  0  0  0  0  0  0
   14.0988    0.4958   23.6252 H   0  0  0  0  0  0  0  0  0  0  0  0
   12.2936    1.3715   25.0747 H   0  0  0  0  0  0  0  0  0  0  0  0
    9.9656    0.6758   24.7010 H   0  0  0  0  0  0  0  0  0  0  0  0
   11.2333   -1.8736   21.5149 H   0  0  0  0  0  0  0  0  0  0  0  0
    8.9299   -2.0051   22.4266 H   0  0  0  0  0  0  0  0  0  0  0  0
    8.3870   -0.8176   23.6602 H   0  0  0  0  0  0  0  0  0  0  0  0
    6.8842   -1.3513   21.5222 H   0  0  0  0  0  0  0  0  0  0  0  0
    7.9549   -0.8433   18.4993 H   0  0  0  0  0  0  0  0  0  0  0  0
    4.9946    1.5259   16.8642 H   0  0  0  0  0  0  0  0  0  0  0  0
    5.2957    0.5394   22.2911 H   0  0  0  0  0  0  0  0  0  0  0  0
    3.3309    1.9484   22.5081 H   0  0  0  0  0  0  0  0  0  0  0  0
    3.3172    2.6903   18.3074 H   0  0  0  0  0  0  0  0  0  0  0  0
  1  2  1  0  0  0  0
  2  3  2  0  0  0  0
  2  6  1  0  0  0  0
  3  4  1  0  0  0  0
  3 25  1  0  0  0  0
  4  5  2  0  0  0  0
  4 26  1  0  0  0  0
  5  7  1  0  0  0  0
  5 27  1  0  0  0  0
  6  7  2  0  0  0  0
  6 28  1  0  0  0  0
  7  8  1  0  0  0  0
  8  9  1  0  0  0  0
  8 29  1  0  0  0  0
  8 30  1  0  0  0  0
  9 10  2  0  0  0  0
  9 11  1  0  0  0  0
 11 12  1  0  0  0  0
 11 31  1  0  0  0  0
 12 13  2  0  0  0  0
 12 17  1  0  0  0  0
 13 14  1  0  0  0  0
 13 32  1  0  0  0  0
 14 15  2  0  0  0  0
 15 16  1  0  0  0  0
 15 33  1  0  0  0  0
 16 17  2  0  0  0  0
 16 20  1  0  0  0  0
 17 18  1  0  0  0  0
 18 19  2  0  0  0  0
 18 34  1  0  0  0  0
 19 21  1  0  0  0  0
 19 35  1  0  0  0  0
 20 21  2  0  0  0  0
 20 36  1  0  0  0  0
 21 22  1  0  0  0  0
 22 23  2  0  0  0  0
 22 24  1  0  0  0  0
M  CHG  1  24  -1
M  END
> <compound_name>
MAT-POS-90fd5f68-38

> <provenance>
{"isomeric_smiles": "c1cc(cc(c1)Cl)CC(=O)Nc2cncc3c2ccc(c3)C(=O)[O-]", "inchi": "InChI=1S/C18H13ClN2O3/c19-14-3-1-2-11(6-14)7-17(22)21-16-10-20-9-13-8-12(18(23)24)4-5-15(13)16/h1-6,8-10H,7H2,(H,21,22)(H,23,24)/p-1", "inchi_key": "OOJDKYAMUUAETB-UHFFFAOYSA-M", "fixed_inchi": "InChI=1/C18H13ClN2O3/c19-14-3-1-2-11(6-14)7-17(22)21-16-10-20-9-13-8-12(18(23)24)4-5-15(13)16/h1-6,8-10H,7H2,(H,21,22)(H,23,24)/p-1/fC18H12ClN2O3/h21H/q-1", "fixed_inchikey": "OOJDKYAMUUAETB-YTKIOGQMNA-M"}

> <data_format>
sdf

$$$$
