LIG(A-306)
  -OEChem-06042511413D

 45 47  0     0  0  0  0  0  0999 V2000
    9.0268    0.8084   21.3549 O   0  0  0  0  0  0  0  0  0  0  0  0
    8.5086   -0.2777   21.5976 C   0  0  0  0  0  0  0  0  0  0  0  0
    7.3826   -0.7204   20.9916 N   0  0  0  0  0  0  0  0  0  0  0  0
    6.6706   -0.1216   19.9297 C   0  0  0  0  0  0  0  0  0  0  0  0
    5.5544    0.7192   20.2371 C   0  0  0  0  0  0  0  0  0  0  0  0
    5.0742    0.9447   21.5524 C   0  0  0  0  0  0  0  0  0  0  0  0
    4.0119    1.7738   21.7817 C   0  0  0  0  0  0  0  0  0  0  0  0
    3.3791    2.4184   20.7270 C   0  0  0  0  0  0  0  0  0  0  0  0
    3.7984    2.2309   19.4420 C   0  0  0  0  0  0  0  0  0  0  0  0
    4.8906    1.3740   19.1595 C   0  0  0  0  0  0  0  0  0  0  0  0
    5.3668    1.1305   17.8472 C   0  0  0  0  0  0  0  0  0  0  0  0
    6.3971    0.3438   17.5621 N   0  0  0  0  0  0  0  0  0  0  0  0
    7.0211   -0.2566   18.5850 C   0  0  0  0  0  0  0  0  0  0  0  0
    9.1048   -1.2420   22.6057 C   0  0  0  0  0  0  0  0  0  0  0  0
   10.5038   -0.7978   22.9807 C   0  0  0  0  0  0  0  0  0  0  0  0
   11.5688   -1.1940   22.1705 C   0  0  0  0  0  0  0  0  0  0  0  0
   12.8458   -0.7400   22.4375 C   0  0  0  0  0  0  0  0  0  0  0  0
   14.1457   -1.1794   21.3631 Cl  0  0  0  0  0  0  0  0  0  0  0  0
   13.1078    0.0801   23.5086 C   0  0  0  0  0  0  0  0  0  0  0  0
   12.0667    0.4542   24.3346 C   0  0  0  0  0  0  0  0  0  0  0  0
   10.7608    0.0291   24.0918 C   0  0  0  0  0  0  0  0  0  0  0  0
    9.6408    0.4559   25.0151 C   0  0  0  0  0  0  0  0  0  0  0  0
   10.0919    1.3406   26.1014 N   0  0  0  0  0  0  0  0  0  0  0  0
    9.9845    0.9769   27.6777 S   0  0  0  0  0  0  0  0  0  0  0  0
   11.3008    1.0975   28.2230 O   0  0  0  0  0  0  0  0  0  0  0  0
    8.9403    1.7874   28.2209 O   0  0  0  0  0  0  0  0  0  0  0  0
    9.4930   -0.7007   27.8054 C   0  0  0  0  0  0  0  0  0  0  0  0
    7.0076   -1.5796   21.3397 H   0  0  0  0  0  0  0  0  0  0  0  0
    5.5551    0.4537   22.3855 H   0  0  0  0  0  0  0  0  0  0  0  0
    3.6620    1.9289   22.7915 H   0  0  0  0  0  0  0  0  0  0  0  0
    2.5455    3.0755   20.9260 H   0  0  0  0  0  0  0  0  0  0  0  0
    3.2937    2.7398   18.6341 H   0  0  0  0  0  0  0  0  0  0  0  0
    4.8592    1.6160   17.0269 H   0  0  0  0  0  0  0  0  0  0  0  0
    7.8604   -0.8946   18.3508 H   0  0  0  0  0  0  0  0  0  0  0  0
    8.4749   -1.2625   23.5072 H   0  0  0  0  0  0  0  0  0  0  0  0
    9.1478   -2.2491   22.1655 H   0  0  0  0  0  0  0  0  0  0  0  0
   11.3946   -1.8556   21.3348 H   0  0  0  0  0  0  0  0  0  0  0  0
   14.1123    0.4267   23.7011 H   0  0  0  0  0  0  0  0  0  0  0  0
   12.2675    1.0884   25.1855 H   0  0  0  0  0  0  0  0  0  0  0  0
    8.8824    0.9884   24.4224 H   0  0  0  0  0  0  0  0  0  0  0  0
    9.1924   -0.4444   25.4605 H   0  0  0  0  0  0  0  0  0  0  0  0
   10.4904    2.2229   25.8511 H   0  0  0  0  0  0  0  0  0  0  0  0
    9.4107   -0.9794   28.8663 H   0  0  0  0  0  0  0  0  0  0  0  0
    8.5179   -0.8354   27.3143 H   0  0  0  0  0  0  0  0  0  0  0  0
   10.2417   -1.3403   27.3154 H   0  0  0  0  0  0  0  0  0  0  0  0
  1  2  2  0  0  0  0
  2  3  1  0  0  0  0
  2 14  1  0  0  0  0
  3  4  1  0  0  0  0
  3 28  1  0  0  0  0
  4  5  2  0  0  0  0
  4 13  1  0  0  0  0
  5  6  1  0  0  0  0
  5 10  1  0  0  0  0
  6  7  2  0  0  0  0
  6 29  1  0  0  0  0
  7  8  1  0  0  0  0
  7 30  1  0  0  0  0
  8  9  2  0  0  0  0
  8 31  1  0  0  0  0
  9 10  1  0  0  0  0
  9 32  1  0  0  0  0
 10 11  2  0  0  0  0
 11 12  1  0  0  0  0
 11 33  1  0  0  0  0
 12 13  2  0  0  0  0
 13 34  1  0  0  0  0
 14 15  1  0  0  0  0
 14 35  1  0  0  0  0
 14 36  1  0  0  0  0
 15 16  2  0  0  0  0
 15 21  1  0  0  0  0
 16 17  1  0  0  0  0
 16 37  1  0  0  0  0
 17 18  1  0  0  0  0
 17 19  2  0  0  0  0
 19 20  1  0  0  0  0
 19 38  1  0  0  0  0
 20 21  2  0  0  0  0
 20 39  1  0  0  0  0
 21 22  1  0  0  0  0
 22 23  1  0  0  0  0
 22 40  1  0  0  0  0
 22 41  1  0  0  0  0
 23 24  1  0  0  0  0
 23 42  1  0  0  0  0
 24 25  2  0  0  0  0
 24 26  2  0  0  0  0
 24 27  1  0  0  0  0
 27 43  1  0  0  0  0
 27 44  1  0  0  0  0
 27 45  1  0  0  0  0
M  END
> <compound_name>
ALP-POS-6479a3a9-2

> <provenance>
{"isomeric_smiles": "CS(=O)(=O)NCc1ccc(cc1CC(=O)Nc2cncc3c2cccc3)Cl", "inchi": "InChI=1S/C19H18ClN3O3S/c1-27(25,26)22-11-13-6-7-16(20)8-15(13)9-19(24)23-18-12-21-10-14-4-2-3-5-17(14)18/h2-8,10,12,22H,9,11H2,1H3,(H,23,24)", "inchi_key": "NPWJYOOGEVTHDL-UHFFFAOYSA-N", "fixed_inchi": "InChI=1/C19H18ClN3O3S/c1-27(25,26)22-11-13-6-7-16(20)8-15(13)9-19(24)23-18-12-21-10-14-4-2-3-5-17(14)18/h2-8,10,12,22H,9,11H2,1H3,(H,23,24)/f/h23H", "fixed_inchikey": "NPWJYOOGEVTHDL-MPIMZMORNA-N"}

> <data_format>
sdf

$$$$
