LIG(A-305)
  -OEChem-06042511363D

 48 51  0     0  0  0  0  0  0999 V2000
    9.1771    1.3844   21.0665 O   0  0  0  0  0  0  0  0  0  0  0  0
    8.9220    0.3664   21.6885 C   0  0  0  0  0  0  0  0  0  0  0  0
    8.1818   -0.7885   21.0145 C   0  0  0  0  0  0  0  0  0  0  0  0
    7.2528   -0.2964   20.0176 N   0  0  0  0  0  0  0  0  0  0  0  0
    6.1259    0.4477   20.1867 C   0  0  0  0  0  0  0  0  0  0  0  0
    5.4221    0.8808   21.3027 C   0  0  0  0  0  0  0  0  0  0  0  0
    4.3031    1.6739   21.0858 C   0  0  0  0  0  0  0  0  0  0  0  0
    3.9161    2.0309   19.7948 C   0  0  0  0  0  0  0  0  0  0  0  0
    4.6329    1.5969   18.6878 C   0  0  0  0  0  0  0  0  0  0  0  0
    5.7459    0.7867   18.8927 C   0  0  0  0  0  0  0  0  0  0  0  0
    6.6397    0.2277   18.0096 N   0  0  0  0  0  0  0  0  0  0  0  0
    7.5357   -0.4224   18.6966 N   0  0  0  0  0  0  0  0  0  0  0  0
    9.2561    0.2133   23.0024 N   0  0  0  0  0  0  0  0  0  0  0  0
    9.1070   -1.0037   23.7354 C   0  0  0  0  0  0  0  0  0  0  0  0
    8.2021   -1.0806   24.7925 C   0  0  0  0  0  0  0  0  0  0  0  0
    8.1140   -2.2326   25.5545 C   0  0  0  0  0  0  0  0  0  0  0  0
    9.9089   -2.0997   23.4374 C   0  0  0  0  0  0  0  0  0  0  0  0
    9.8108   -3.2567   24.1854 C   0  0  0  0  0  0  0  0  0  0  0  0
    8.9199   -3.3206   25.2494 C   0  0  0  0  0  0  0  0  0  0  0  0
    8.8038   -4.4276   26.0534 O   0  0  0  0  0  0  0  0  0  0  0  0
    9.6117   -5.5647   25.7474 C   0  0  0  0  0  0  0  0  0  0  0  0
    9.8263    1.3603   23.7224 C   0  0  0  0  0  0  0  0  0  0  0  0
   11.2703    1.6271   23.3713 C   0  0  0  0  0  0  0  0  0  0  0  0
   11.6534    2.8471   22.8193 C   0  0  0  0  0  0  0  0  0  0  0  0
   12.9504    3.0159   22.3702 C   0  0  0  0  0  0  0  0  0  0  0  0
   13.4365    4.5679   21.7492 Cl  0  0  0  0  0  0  0  0  0  0  0  0
   13.8783    2.0008   22.4391 C   0  0  0  0  0  0  0  0  0  0  0  0
   13.5072    0.8019   23.0201 C   0  0  0  0  0  0  0  0  0  0  0  0
   12.2162    0.6200   23.4882 C   0  0  0  0  0  0  0  0  0  0  0  0
    8.9137   -1.4506   20.5289 H   0  0  0  0  0  0  0  0  0  0  0  0
    7.6257   -1.3536   21.7771 H   0  0  0  0  0  0  0  0  0  0  0  0
    5.7330    0.6110   22.3012 H   0  0  0  0  0  0  0  0  0  0  0  0
    3.7241    2.0192   21.9296 H   0  0  0  0  0  0  0  0  0  0  0  0
    3.0456    2.6545   19.6538 H   0  0  0  0  0  0  0  0  0  0  0  0
    4.3336    1.8815   17.6899 H   0  0  0  0  0  0  0  0  0  0  0  0
    7.5664   -0.2371   25.0182 H   0  0  0  0  0  0  0  0  0  0  0  0
    7.4220   -2.2846   26.3821 H   0  0  0  0  0  0  0  0  0  0  0  0
   10.6107   -2.0463   22.6182 H   0  0  0  0  0  0  0  0  0  0  0  0
   10.4260   -4.1107   23.9433 H   0  0  0  0  0  0  0  0  0  0  0  0
    9.4090   -6.3654   26.4739 H   0  0  0  0  0  0  0  0  0  0  0  0
    9.3745   -5.9207   24.7339 H   0  0  0  0  0  0  0  0  0  0  0  0
   10.6740   -5.2839   25.7982 H   0  0  0  0  0  0  0  0  0  0  0  0
    9.2360    2.2553   23.4768 H   0  0  0  0  0  0  0  0  0  0  0  0
    9.7602    1.1626   24.8025 H   0  0  0  0  0  0  0  0  0  0  0  0
   10.9421    3.6560   22.7425 H   0  0  0  0  0  0  0  0  0  0  0  0
   14.8753    2.1381   22.0475 H   0  0  0  0  0  0  0  0  0  0  0  0
   14.2282    0.0027   23.1094 H   0  0  0  0  0  0  0  0  0  0  0  0
   11.9431   -0.3175   23.9497 H   0  0  0  0  0  0  0  0  0  0  0  0
  1  2  2  0  0  0  0
  2  3  1  0  0  0  0
  2 13  1  0  0  0  0
  3  4  1  0  0  0  0
  3 30  1  0  0  0  0
  3 31  1  0  0  0  0
  4  5  1  0  0  0  0
  4 12  1  0  0  0  0
  5  6  2  0  0  0  0
  5 10  1  0  0  0  0
  6  7  1  0  0  0  0
  6 32  1  0  0  0  0
  7  8  2  0  0  0  0
  7 33  1  0  0  0  0
  8  9  1  0  0  0  0
  8 34  1  0  0  0  0
  9 10  2  0  0  0  0
  9 35  1  0  0  0  0
 10 11  1  0  0  0  0
 11 12  2  0  0  0  0
 13 14  1  0  0  0  0
 13 22  1  0  0  0  0
 14 15  2  0  0  0  0
 14 17  1  0  0  0  0
 15 16  1  0  0  0  0
 15 36  1  0  0  0  0
 16 19  2  0  0  0  0
 16 37  1  0  0  0  0
 17 18  2  0  0  0  0
 17 38  1  0  0  0  0
 18 19  1  0  0  0  0
 18 39  1  0  0  0  0
 19 20  1  0  0  0  0
 20 21  1  0  0  0  0
 21 40  1  0  0  0  0
 21 41  1  0  0  0  0
 21 42  1  0  0  0  0
 22 23  1  0  0  0  0
 22 43  1  0  0  0  0
 22 44  1  0  0  0  0
 23 24  2  0  0  0  0
 23 29  1  0  0  0  0
 24 25  1  0  0  0  0
 24 45  1  0  0  0  0
 25 26  1  0  0  0  0
 25 27  2  0  0  0  0
 27 28  1  0  0  0  0
 27 46  1  0  0  0  0
 28 29  2  0  0  0  0
 28 47  1  0  0  0  0
 29 48  1  0  0  0  0
M  END
> <compound_name>
CHO-MSK-00c5269a-2

> <provenance>
{"isomeric_smiles": "COc1ccc(cc1)N(Cc2cccc(c2)Cl)C(=O)Cn3c4ccccc4nn3", "inchi": "InChI=1S/C22H19ClN4O2/c1-29-19-11-9-18(10-12-19)26(14-16-5-4-6-17(23)13-16)22(28)15-27-21-8-3-2-7-20(21)24-25-27/h2-13H,14-15H2,1H3", "inchi_key": "RVLKWCGLMRBJIF-UHFFFAOYSA-N", "fixed_inchi": "InChI=1/C22H19ClN4O2/c1-29-19-11-9-18(10-12-19)26(14-16-5-4-6-17(23)13-16)22(28)15-27-21-8-3-2-7-20(21)24-25-27/h2-13H,14-15H2,1H3", "fixed_inchikey": "RVLKWCGLMRBJIF-UHFFFAOYNA-N"}

> <data_format>
sdf

$$$$
