LIG(A-306)
  -OEChem-06042511423D

 59 62  0     1  0  0  0  0  0999 V2000
   14.2134   -1.5772   20.9911 Cl  0  0  0  0  0  0  0  0  0  0  0  0
   13.1145   -0.7621   22.0635 C   0  0  0  0  0  0  0  0  0  0  0  0
   11.7926   -1.1534   22.0909 C   0  0  0  0  0  0  0  0  0  0  0  0
   13.5790    0.2710   22.8485 C   0  0  0  0  0  0  0  0  0  0  0  0
   12.7026    0.9006   23.7119 C   0  0  0  0  0  0  0  0  0  0  0  0
   11.3588    0.5313   23.7664 C   0  0  0  0  0  0  0  0  0  0  0  0
   10.4345    1.1964   24.7570 C   0  0  0  0  0  0  0  0  0  0  0  0
    9.0272    1.1145   24.3410 N   0  3  2  0  0  0  0  0  0  0  0  0
    8.1170    1.8080   25.2447 C   0  0  0  0  0  0  0  0  0  0  0  0
    7.7589    3.1884   24.7217 C   0  0  0  0  0  0  0  0  0  0  0  0
    8.2283    4.2049   25.2286 O   0  0  0  0  0  0  0  0  0  0  0  0
    7.0016    3.2105   23.6320 N   0  0  0  0  0  0  0  0  0  0  0  0
    6.8660    4.3940   22.7999 C   0  0  0  0  0  0  0  0  0  0  0  0
   10.8913   -0.4775   22.9085 C   0  0  0  0  0  0  0  0  0  0  0  0
    9.3998   -0.7255   22.7667 C   0  0  1  0  0  0  0  0  0  0  0  0
    8.6591   -0.2661   24.0272 C   0  0  0  0  0  0  0  0  0  0  0  0
    8.9000    0.0039   21.5135 C   0  0  0  0  0  0  0  0  0  0  0  0
    9.2714    1.1405   21.2290 O   0  0  0  0  0  0  0  0  0  0  0  0
    7.9393   -0.6606   20.8154 N   0  0  0  0  0  0  0  0  0  0  0  0
    7.0761   -0.1706   19.7961 C   0  0  0  0  0  0  0  0  0  0  0  0
    5.8977    0.5109   20.2248 C   0  0  0  0  0  0  0  0  0  0  0  0
    5.1150    1.1925   19.2504 C   0  0  0  0  0  0  0  0  0  0  0  0
    5.5284    1.1133   17.8978 C   0  0  0  0  0  0  0  0  0  0  0  0
    6.6079    0.4569   17.4903 N   0  0  0  0  0  0  0  0  0  0  0  0
    7.3518   -0.1544   18.4260 C   0  0  0  0  0  0  0  0  0  0  0  0
    5.4982    0.5641   21.5682 C   0  0  0  0  0  0  0  0  0  0  0  0
    4.4029    1.2885   21.9631 C   0  0  0  0  0  0  0  0  0  0  0  0
    3.6492    1.9779   21.0097 C   0  0  0  0  0  0  0  0  0  0  0  0
    3.9847    1.9328   19.6834 C   0  0  0  0  0  0  0  0  0  0  0  0
    4.1512    1.2411   23.3719 N   0  0  0  0  0  0  0  0  0  0  0  0
    3.0141    1.9700   24.2819 S   0  0  0  0  0  0  0  0  0  0  0  0
    3.7293    2.8592   25.1441 O   0  0  0  0  0  0  0  0  0  0  0  0
    2.0140    2.5056   23.4088 O   0  0  0  0  0  0  0  0  0  0  0  0
    2.2856    0.7137   25.2638 C   0  0  0  0  0  0  0  0  0  0  0  0
   11.4584   -1.9798   21.4813 H   0  0  0  0  0  0  0  0  0  0  0  0
   14.6112    0.5834   22.7900 H   0  0  0  0  0  0  0  0  0  0  0  0
   13.0637    1.6904   24.3540 H   0  0  0  0  0  0  0  0  0  0  0  0
   10.5452    0.7015   25.7331 H   0  0  0  0  0  0  0  0  0  0  0  0
   10.7162    2.2557   24.8490 H   0  0  0  0  0  0  0  0  0  0  0  0
    8.9756    1.6100   23.4739 H   0  0  0  0  0  0  0  0  0  0  0  0
    7.1963    1.2153   25.3492 H   0  0  0  0  0  0  0  0  0  0  0  0
    8.5995    1.9122   26.2277 H   0  0  0  0  0  0  0  0  0  0  0  0
    6.5057    2.3814   23.3738 H   0  0  0  0  0  0  0  0  0  0  0  0
    6.1920    4.1759   21.9584 H   0  0  0  0  0  0  0  0  0  0  0  0
    6.4499    5.2174   23.3988 H   0  0  0  0  0  0  0  0  0  0  0  0
    7.8536    4.6850   22.4126 H   0  0  0  0  0  0  0  0  0  0  0  0
    9.2315   -1.8045   22.6347 H   0  0  0  0  0  0  0  0  0  0  0  0
    7.5742   -0.3251   23.8555 H   0  0  0  0  0  0  0  0  0  0  0  0
    8.9329   -0.9179   24.8699 H   0  0  0  0  0  0  0  0  0  0  0  0
    7.8243   -1.6255   21.0511 H   0  0  0  0  0  0  0  0  0  0  0  0
    4.9295    1.6171   17.1536 H   0  0  0  0  0  0  0  0  0  0  0  0
    8.2362   -0.6766   18.0925 H   0  0  0  0  0  0  0  0  0  0  0  0
    6.0667    0.0216   22.3091 H   0  0  0  0  0  0  0  0  0  0  0  0
    2.7909    2.5538   21.3232 H   0  0  0  0  0  0  0  0  0  0  0  0
    3.3842    2.4651   18.9606 H   0  0  0  0  0  0  0  0  0  0  0  0
    4.3934    0.3472   23.7493 H   0  0  0  0  0  0  0  0  0  0  0  0
    1.5052    1.1531   25.9024 H   0  0  0  0  0  0  0  0  0  0  0  0
    1.8377   -0.0491   24.6099 H   0  0  0  0  0  0  0  0  0  0  0  0
    3.0570    0.2485   25.8952 H   0  0  0  0  0  0  0  0  0  0  0  0
  1  2  1  0  0  0  0
  2  3  2  0  0  0  0
  2  4  1  0  0  0  0
  3 14  1  0  0  0  0
  3 35  1  0  0  0  0
  4  5  2  0  0  0  0
  4 36  1  0  0  0  0
  5  6  1  0  0  0  0
  5 37  1  0  0  0  0
  6  7  1  0  0  0  0
  6 14  2  0  0  0  0
  7  8  1  0  0  0  0
  7 38  1  0  0  0  0
  7 39  1  0  0  0  0
  8  9  1  0  0  0  0
  8 16  1  0  0  0  0
  8 40  1  0  0  0  0
  9 10  1  0  0  0  0
  9 41  1  0  0  0  0
  9 42  1  0  0  0  0
 10 11  2  0  0  0  0
 10 12  1  0  0  0  0
 12 13  1  0  0  0  0
 12 43  1  0  0  0  0
 13 44  1  0  0  0  0
 13 45  1  0  0  0  0
 13 46  1  0  0  0  0
 14 15  1  0  0  0  0
 15 16  1  0  0  0  0
 15 17  1  0  0  0  0
 15 47  1  0  0  0  0
 16 48  1  0  0  0  0
 16 49  1  0  0  0  0
 17 18  2  0  0  0  0
 17 19  1  0  0  0  0
 19 20  1  0  0  0  0
 19 50  1  0  0  0  0
 20 21  2  0  0  0  0
 20 25  1  0  0  0  0
 21 22  1  0  0  0  0
 21 26  1  0  0  0  0
 22 23  2  0  0  0  0
 22 29  1  0  0  0  0
 23 24  1  0  0  0  0
 23 51  1  0  0  0  0
 24 25  2  0  0  0  0
 25 52  1  0  0  0  0
 26 27  2  0  0  0  0
 26 53  1  0  0  0  0
 27 28  1  0  0  0  0
 27 30  1  0  0  0  0
 28 29  2  0  0  0  0
 28 54  1  0  0  0  0
 29 55  1  0  0  0  0
 30 31  1  0  0  0  0
 30 56  1  0  0  0  0
 31 32  2  0  0  0  0
 31 33  2  0  0  0  0
 31 34  1  0  0  0  0
 34 57  1  0  0  0  0
 34 58  1  0  0  0  0
 34 59  1  0  0  0  0
M  CHG  1   8   1
M  END
> <compound_name>
MAT-POS-2e8b2191-10

> <provenance>
{"isomeric_smiles": "CNC(=O)C[N@H+]1Cc2ccc(cc2[C@@H](C1)C(=O)Nc3cncc4c3cc(cc4)NS(=O)(=O)C)Cl", "inchi": "InChI=1S/C23H24ClN5O4S/c1-25-22(30)13-29-11-15-3-5-16(24)7-18(15)20(12-29)23(31)27-21-10-26-9-14-4-6-17(8-19(14)21)28-34(2,32)33/h3-10,20,28H,11-13H2,1-2H3,(H,25,30)(H,27,31)/p+1/t20-/m1/s1", "inchi_key": "BDCZHNBCXCBWRA-HXUWFJFHSA-O", "fixed_inchi": "InChI=1/C23H24ClN5O4S/c1-25-22(30)13-29-11-15-3-5-16(24)7-18(15)20(12-29)23(31)27-21-10-26-9-14-4-6-17(8-19(14)21)28-34(2,32)33/h3-10,20,28H,11-13H2,1-2H3,(H,25,30)(H,27,31)/p+1/t20-/m1/s1/fC23H25ClN5O4S/h25,27,29H/q+1", "fixed_inchikey": "BDCZHNBCXCBWRA-CQWPRKCCNA-O"}

> <data_format>
sdf

$$$$
