LIG(A-306)
  -OEChem-06042511403D

 51 54  0     1  0  0  0  0  0999 V2000
   13.9005   -1.6251   21.1456 Cl  0  0  0  0  0  0  0  0  0  0  0  0
   12.7887   -0.8561   22.2428 C   0  0  0  0  0  0  0  0  0  0  0  0
   11.4447   -1.1742   22.1681 C   0  0  0  0  0  0  0  0  0  0  0  0
   13.2498    0.1279   23.0877 C   0  0  0  0  0  0  0  0  0  0  0  0
   12.3439    0.8238   23.8649 C   0  0  0  0  0  0  0  0  0  0  0  0
   10.9789    0.5468   23.8022 C   0  0  0  0  0  0  0  0  0  0  0  0
   10.0441    1.3057   24.7174 C   0  0  0  0  0  0  0  0  0  0  0  0
    8.6280    1.1596   24.3397 N   0  3  2  0  0  0  0  0  0  0  0  0
    7.7282    1.7176   25.3589 C   0  0  0  0  0  0  0  0  0  0  0  0
    6.4351    2.2655   24.8222 C   0  0  0  0  0  0  0  0  0  0  0  0
    5.6793    2.7504   25.9183 O   0  0  0  0  0  0  0  0  0  0  0  0
    4.5211    3.4624   25.5036 C   0  0  0  0  0  0  0  0  0  0  0  0
   10.5228   -0.4553   22.9313 C   0  0  0  0  0  0  0  0  0  0  0  0
    9.0338   -0.7203   22.8056 C   0  0  1  0  0  0  0  0  0  0  0  0
    8.3040   -0.2434   24.0617 C   0  0  0  0  0  0  0  0  0  0  0  0
    8.4815    0.0206   21.5867 C   0  0  0  0  0  0  0  0  0  0  0  0
    9.0094    1.0467   21.1496 O   0  0  0  0  0  0  0  0  0  0  0  0
    7.3494   -0.5224   21.0609 N   0  0  0  0  0  0  0  0  0  0  0  0
    6.5792   -0.0405   19.9721 C   0  0  0  0  0  0  0  0  0  0  0  0
    5.4922    0.8525   20.2403 C   0  0  0  0  0  0  0  0  0  0  0  0
    4.9604    1.0834   21.5365 C   0  0  0  0  0  0  0  0  0  0  0  0
    3.9124    1.9394   21.7257 C   0  0  0  0  0  0  0  0  0  0  0  0
    3.3572    2.6274   20.6498 C   0  0  0  0  0  0  0  0  0  0  0  0
    3.8299    2.4374   19.3827 C   0  0  0  0  0  0  0  0  0  0  0  0
    4.8919    1.5305   19.1385 C   0  0  0  0  0  0  0  0  0  0  0  0
    5.3727    1.2335   17.8394 C   0  0  0  0  0  0  0  0  0  0  0  0
    6.3427    0.3696   17.5852 N   0  0  0  0  0  0  0  0  0  0  0  0
    6.9189   -0.2414   18.6320 C   0  0  0  0  0  0  0  0  0  0  0  0
   11.1105   -1.9736   21.5234 H   0  0  0  0  0  0  0  0  0  0  0  0
   14.3047    0.3527   23.1423 H   0  0  0  0  0  0  0  0  0  0  0  0
   12.6991    1.5952   24.5322 H   0  0  0  0  0  0  0  0  0  0  0  0
   10.1744    0.9292   25.7427 H   0  0  0  0  0  0  0  0  0  0  0  0
   10.3083    2.3729   24.6823 H   0  0  0  0  0  0  0  0  0  0  0  0
    8.4861    1.6764   23.4954 H   0  0  0  0  0  0  0  0  0  0  0  0
    7.4902    0.9209   26.0791 H   0  0  0  0  0  0  0  0  0  0  0  0
    8.2578    2.5321   25.8748 H   0  0  0  0  0  0  0  0  0  0  0  0
    6.6402    3.0851   24.1178 H   0  0  0  0  0  0  0  0  0  0  0  0
    5.8774    1.4699   24.3065 H   0  0  0  0  0  0  0  0  0  0  0  0
    3.9714    3.8164   26.3881 H   0  0  0  0  0  0  0  0  0  0  0  0
    4.8211    4.3241   24.8892 H   0  0  0  0  0  0  0  0  0  0  0  0
    3.8745    2.7976   24.9119 H   0  0  0  0  0  0  0  0  0  0  0  0
    8.8659   -1.8000   22.6784 H   0  0  0  0  0  0  0  0  0  0  0  0
    8.6121   -0.8628   24.9170 H   0  0  0  0  0  0  0  0  0  0  0  0
    7.2190   -0.3416   23.9099 H   0  0  0  0  0  0  0  0  0  0  0  0
    7.0217   -1.3618   21.4944 H   0  0  0  0  0  0  0  0  0  0  0  0
    5.3911    0.5746   22.3861 H   0  0  0  0  0  0  0  0  0  0  0  0
    3.5113    2.0836   22.7180 H   0  0  0  0  0  0  0  0  0  0  0  0
    2.5445    3.3181   20.8192 H   0  0  0  0  0  0  0  0  0  0  0  0
    3.3912    2.9825   18.5600 H   0  0  0  0  0  0  0  0  0  0  0  0
    4.9188    1.7446   17.0032 H   0  0  0  0  0  0  0  0  0  0  0  0
    7.7098   -0.9460   18.4213 H   0  0  0  0  0  0  0  0  0  0  0  0
  1  2  1  0  0  0  0
  2  3  2  0  0  0  0
  2  4  1  0  0  0  0
  3 13  1  0  0  0  0
  3 29  1  0  0  0  0
  4  5  2  0  0  0  0
  4 30  1  0  0  0  0
  5  6  1  0  0  0  0
  5 31  1  0  0  0  0
  6  7  1  0  0  0  0
  6 13  2  0  0  0  0
  7  8  1  0  0  0  0
  7 32  1  0  0  0  0
  7 33  1  0  0  0  0
  8  9  1  0  0  0  0
  8 15  1  0  0  0  0
  8 34  1  0  0  0  0
  9 10  1  0  0  0  0
  9 35  1  0  0  0  0
  9 36  1  0  0  0  0
 10 11  1  0  0  0  0
 10 37  1  0  0  0  0
 10 38  1  0  0  0  0
 11 12  1  0  0  0  0
 12 39  1  0  0  0  0
 12 40  1  0  0  0  0
 12 41  1  0  0  0  0
 13 14  1  0  0  0  0
 14 15  1  0  0  0  0
 14 16  1  0  0  0  0
 14 42  1  0  0  0  0
 15 43  1  0  0  0  0
 15 44  1  0  0  0  0
 16 17  2  0  0  0  0
 16 18  1  0  0  0  0
 18 19  1  0  0  0  0
 18 45  1  0  0  0  0
 19 20  2  0  0  0  0
 19 28  1  0  0  0  0
 20 21  1  0  0  0  0
 20 25  1  0  0  0  0
 21 22  2  0  0  0  0
 21 46  1  0  0  0  0
 22 23  1  0  0  0  0
 22 47  1  0  0  0  0
 23 24  2  0  0  0  0
 23 48  1  0  0  0  0
 24 25  1  0  0  0  0
 24 49  1  0  0  0  0
 25 26  2  0  0  0  0
 26 27  1  0  0  0  0
 26 50  1  0  0  0  0
 27 28  2  0  0  0  0
 28 51  1  0  0  0  0
M  CHG  1   8   1
M  END
> <compound_name>
MAT-POS-4223bc15-28

> <provenance>
{"isomeric_smiles": "COCC[N@H+]1Cc2ccc(cc2[C@@H](C1)C(=O)Nc3cncc4c3cccc4)Cl", "inchi": "InChI=1S/C22H22ClN3O2/c1-28-9-8-26-13-16-6-7-17(23)10-19(16)20(14-26)22(27)25-21-12-24-11-15-4-2-3-5-18(15)21/h2-7,10-12,20H,8-9,13-14H2,1H3,(H,25,27)/p+1/t20-/m1/s1", "inchi_key": "BDYIWAGQQMTVBW-HXUWFJFHSA-O", "fixed_inchi": "InChI=1/C22H22ClN3O2/c1-28-9-8-26-13-16-6-7-17(23)10-19(16)20(14-26)22(27)25-21-12-24-11-15-4-2-3-5-18(15)21/h2-7,10-12,20H,8-9,13-14H2,1H3,(H,25,27)/p+1/t20-/m1/s1/fC22H23ClN3O2/h25-26H/q+1", "fixed_inchikey": "BDYIWAGQQMTVBW-IOAIYWRVNA-O"}

> <data_format>
sdf

$$$$
