LIG(A-305)
  -OEChem-06042511363D

 35 37  0     0  0  0  0  0  0999 V2000
    9.0357    0.8818   21.0584 O   0  0  0  0  0  0  0  0  0  0  0  0
    8.4797   -0.1552   21.3995 C   0  0  0  0  0  0  0  0  0  0  0  0
    8.9688   -0.9700   22.5806 C   0  0  0  0  0  0  0  0  0  0  0  0
   10.4387   -0.7279   22.8246 C   0  0  0  0  0  0  0  0  0  0  0  0
   10.8626    0.1392   23.8215 C   0  0  0  0  0  0  0  0  0  0  0  0
   12.2026    0.4664   23.9566 C   0  0  0  0  0  0  0  0  0  0  0  0
   13.1477   -0.0926   23.1086 C   0  0  0  0  0  0  0  0  0  0  0  0
   11.3898   -1.3069   21.9907 C   0  0  0  0  0  0  0  0  0  0  0  0
   12.7248   -0.9937   22.1547 C   0  0  0  0  0  0  0  0  0  0  0  0
   13.9119   -1.8267   21.1878 Cl  0  0  0  0  0  0  0  0  0  0  0  0
    7.3938   -0.6503   20.7785 N   0  0  0  0  0  0  0  0  0  0  0  0
    6.7078   -0.0065   19.7254 C   0  0  0  0  0  0  0  0  0  0  0  0
    5.5867    0.7724   20.0423 C   0  0  0  0  0  0  0  0  0  0  0  0
    5.0236    1.1275   21.3913 C   0  0  0  0  0  0  0  0  0  0  0  0
    3.6846    1.7913   21.0602 C   0  0  0  0  0  0  0  0  0  0  0  0
    3.7226    2.1832   19.5801 C   0  0  0  0  0  0  0  0  0  0  0  0
    4.8737    1.3903   19.0182 C   0  0  0  0  0  0  0  0  0  0  0  0
    5.3297    1.2062   17.7313 C   0  0  0  0  0  0  0  0  0  0  0  0
    6.4078    0.4853   17.4014 N   0  0  0  0  0  0  0  0  0  0  0  0
    7.0778   -0.1126   18.3894 C   0  0  0  0  0  0  0  0  0  0  0  0
    8.4016   -0.6815   23.4778 H   0  0  0  0  0  0  0  0  0  0  0  0
    8.8085   -2.0384   22.3732 H   0  0  0  0  0  0  0  0  0  0  0  0
   10.1390    0.5647   24.5011 H   0  0  0  0  0  0  0  0  0  0  0  0
   12.5123    1.1593   24.7249 H   0  0  0  0  0  0  0  0  0  0  0  0
   14.1912    0.1722   23.1939 H   0  0  0  0  0  0  0  0  0  0  0  0
   11.0856   -1.9981   21.2186 H   0  0  0  0  0  0  0  0  0  0  0  0
    7.0479   -1.5374   21.0843 H   0  0  0  0  0  0  0  0  0  0  0  0
    4.8741    0.2261   22.0038 H   0  0  0  0  0  0  0  0  0  0  0  0
    5.6872    1.8258   21.9222 H   0  0  0  0  0  0  0  0  0  0  0  0
    2.8600    1.0862   21.2415 H   0  0  0  0  0  0  0  0  0  0  0  0
    3.5446    2.6872   21.6830 H   0  0  0  0  0  0  0  0  0  0  0  0
    2.7810    1.9120   19.0803 H   0  0  0  0  0  0  0  0  0  0  0  0
    3.9002    3.2628   19.4667 H   0  0  0  0  0  0  0  0  0  0  0  0
    4.7777    1.6774   16.9315 H   0  0  0  0  0  0  0  0  0  0  0  0
    7.9458   -0.7048   18.1398 H   0  0  0  0  0  0  0  0  0  0  0  0
  1  2  2  0  0  0  0
  2  3  1  0  0  0  0
  2 11  1  0  0  0  0
  3  4  1  0  0  0  0
  3 21  1  0  0  0  0
  3 22  1  0  0  0  0
  4  5  2  0  0  0  0
  4  8  1  0  0  0  0
  5  6  1  0  0  0  0
  5 23  1  0  0  0  0
  6  7  2  0  0  0  0
  6 24  1  0  0  0  0
  7  9  1  0  0  0  0
  7 25  1  0  0  0  0
  8  9  2  0  0  0  0
  8 26  1  0  0  0  0
  9 10  1  0  0  0  0
 11 12  1  0  0  0  0
 11 27  1  0  0  0  0
 12 13  2  0  0  0  0
 12 20  1  0  0  0  0
 13 14  1  0  0  0  0
 13 17  1  0  0  0  0
 14 15  1  0  0  0  0
 14 28  1  0  0  0  0
 14 29  1  0  0  0  0
 15 16  1  0  0  0  0
 15 30  1  0  0  0  0
 15 31  1  0  0  0  0
 16 17  1  0  0  0  0
 16 32  1  0  0  0  0
 16 33  1  0  0  0  0
 17 18  2  0  0  0  0
 18 19  1  0  0  0  0
 18 34  1  0  0  0  0
 19 20  2  0  0  0  0
 20 35  1  0  0  0  0
M  END
> <compound_name>
MAT-POS-199e2e7c-1

> <provenance>
{"isomeric_smiles": "c1cc(cc(c1)Cl)CC(=O)Nc2cncc3c2CCC3", "inchi": "InChI=1S/C16H15ClN2O/c17-13-5-1-3-11(7-13)8-16(20)19-15-10-18-9-12-4-2-6-14(12)15/h1,3,5,7,9-10H,2,4,6,8H2,(H,19,20)", "inchi_key": "NJHYHXQHRGWKMO-UHFFFAOYSA-N", "fixed_inchi": "InChI=1/C16H15ClN2O/c17-13-5-1-3-11(7-13)8-16(20)19-15-10-18-9-12-4-2-6-14(12)15/h1,3,5,7,9-10H,2,4,6,8H2,(H,19,20)/f/h19H", "fixed_inchikey": "NJHYHXQHRGWKMO-LILDFLRNNA-N"}

> <data_format>
sdf

$$$$
