LIG(A-305)
  -OEChem-06042511343D

 41 42  0     0  0  0  0  0  0999 V2000
    9.3293    0.5116   20.9803 O   0  0  0  0  0  0  0  0  0  0  0  0
    8.5913   -0.3354   21.4783 C   0  0  0  0  0  0  0  0  0  0  0  0
    7.3573   -0.6433   21.0123 N   0  0  0  0  0  0  0  0  0  0  0  0
    6.6723   -0.0273   19.9333 C   0  0  0  0  0  0  0  0  0  0  0  0
    5.5054    0.7247   20.1793 C   0  0  0  0  0  0  0  0  0  0  0  0
    4.9173    0.8657   21.5583 C   0  0  0  0  0  0  0  0  0  0  0  0
    4.9054    1.3458   19.0913 C   0  0  0  0  0  0  0  0  0  0  0  0
    5.4644    1.2108   17.8373 C   0  0  0  0  0  0  0  0  0  0  0  0
    6.5654    0.4958   17.5893 N   0  0  0  0  0  0  0  0  0  0  0  0
    7.1484   -0.1122   18.6253 C   0  0  0  0  0  0  0  0  0  0  0  0
    9.0083   -1.1114   22.7173 C   0  0  0  0  0  0  0  0  0  0  0  0
   10.4083   -0.8964   23.0773 N   0  3  0  0  0  0  0  0  0  0  0  0
   11.2113   -2.0694   22.7083 C   0  0  0  0  0  0  0  0  0  0  0  0
   12.6813   -1.8545   23.0483 C   0  0  0  0  0  0  0  0  0  0  0  0
   10.5523   -0.6195   24.5193 C   0  0  0  0  0  0  0  0  0  0  0  0
   12.0203   -0.3965   24.8843 C   0  0  0  0  0  0  0  0  0  0  0  0
   12.8213   -1.5595   24.4753 N   0  0  0  0  0  0  0  0  0  0  0  0
   13.5403   -2.3486   25.3073 C   0  0  0  0  0  0  0  0  0  0  0  0
   14.6333   -2.0026   25.7073 O   0  0  0  0  0  0  0  0  0  0  0  0
   12.9552   -3.6616   25.7132 C   0  0  0  0  0  0  0  0  0  0  0  0
    6.8769   -1.3855   21.4795 H   0  0  0  0  0  0  0  0  0  0  0  0
    5.6546    1.3360   22.2255 H   0  0  0  0  0  0  0  0  0  0  0  0
    4.0147    1.4925   21.5096 H   0  0  0  0  0  0  0  0  0  0  0  0
    4.6527   -0.1285   21.9473 H   0  0  0  0  0  0  0  0  0  0  0  0
    4.0073    1.9304   19.2261 H   0  0  0  0  0  0  0  0  0  0  0  0
    4.9848    1.7116   17.0092 H   0  0  0  0  0  0  0  0  0  0  0  0
    8.0350   -0.7006   18.4406 H   0  0  0  0  0  0  0  0  0  0  0  0
    8.3763   -0.7939   23.5598 H   0  0  0  0  0  0  0  0  0  0  0  0
    8.8551   -2.1841   22.5278 H   0  0  0  0  0  0  0  0  0  0  0  0
   10.7499   -0.1060   22.5688 H   0  0  0  0  0  0  0  0  0  0  0  0
   10.8397   -2.9470   23.2576 H   0  0  0  0  0  0  0  0  0  0  0  0
   11.1144   -2.2458   21.6269 H   0  0  0  0  0  0  0  0  0  0  0  0
   13.2493   -2.7648   22.8060 H   0  0  0  0  0  0  0  0  0  0  0  0
   13.0726   -1.0109   22.4607 H   0  0  0  0  0  0  0  0  0  0  0  0
    9.9764    0.2828   24.7727 H   0  0  0  0  0  0  0  0  0  0  0  0
   10.1641   -1.4750   25.0916 H   0  0  0  0  0  0  0  0  0  0  0  0
   12.3917    0.5014   24.3688 H   0  0  0  0  0  0  0  0  0  0  0  0
   12.1084   -0.2577   25.9719 H   0  0  0  0  0  0  0  0  0  0  0  0
   13.6561   -4.1855   26.3797 H   0  0  0  0  0  0  0  0  0  0  0  0
   12.0050   -3.4921   26.2408 H   0  0  0  0  0  0  0  0  0  0  0  0
   12.7733   -4.2742   24.8180 H   0  0  0  0  0  0  0  0  0  0  0  0
  1  2  2  0  0  0  0
  2  3  1  0  0  0  0
  2 11  1  0  0  0  0
  3  4  1  0  0  0  0
  3 21  1  0  0  0  0
  4  5  2  0  0  0  0
  4 10  1  0  0  0  0
  5  6  1  0  0  0  0
  5  7  1  0  0  0  0
  6 22  1  0  0  0  0
  6 23  1  0  0  0  0
  6 24  1  0  0  0  0
  7  8  2  0  0  0  0
  7 25  1  0  0  0  0
  8  9  1  0  0  0  0
  8 26  1  0  0  0  0
  9 10  2  0  0  0  0
 10 27  1  0  0  0  0
 11 12  1  0  0  0  0
 11 28  1  0  0  0  0
 11 29  1  0  0  0  0
 12 13  1  0  0  0  0
 12 15  1  0  0  0  0
 12 30  1  0  0  0  0
 13 14  1  0  0  0  0
 13 31  1  0  0  0  0
 13 32  1  0  0  0  0
 14 17  1  0  0  0  0
 14 33  1  0  0  0  0
 14 34  1  0  0  0  0
 15 16  1  0  0  0  0
 15 35  1  0  0  0  0
 15 36  1  0  0  0  0
 16 17  1  0  0  0  0
 16 37  1  0  0  0  0
 16 38  1  0  0  0  0
 17 18  1  0  0  0  0
 18 19  2  0  0  0  0
 18 20  1  0  0  0  0
 20 39  1  0  0  0  0
 20 40  1  0  0  0  0
 20 41  1  0  0  0  0
M  CHG  1  12   1
M  END
> <compound_name>
BEN-DND-93268d01-8

> <provenance>
{"isomeric_smiles": "Cc1ccncc1NC(=O)C[NH+]2CCN(CC2)C(=O)C", "inchi": "InChI=1S/C14H20N4O2/c1-11-3-4-15-9-13(11)16-14(20)10-17-5-7-18(8-6-17)12(2)19/h3-4,9H,5-8,10H2,1-2H3,(H,16,20)/p+1", "inchi_key": "YHXAYSKGSZLMHI-UHFFFAOYSA-O", "fixed_inchi": "InChI=1/C14H20N4O2/c1-11-3-4-15-9-13(11)16-14(20)10-17-5-7-18(8-6-17)12(2)19/h3-4,9H,5-8,10H2,1-2H3,(H,16,20)/p+1/fC14H21N4O2/h16-17H/q+1", "fixed_inchikey": "YHXAYSKGSZLMHI-GJZVGVCZNA-O"}

> <data_format>
sdf

$$$$
