LIG(A-306)
  -OEChem-06042511393D

 52 56  0     1  0  0  0  0  0999 V2000
    8.6975    3.3784   25.7770 O   0  0  0  0  0  0  0  0  0  0  0  0
    7.9174    2.4215   25.0691 S   0  0  0  0  0  0  0  0  0  0  0  0
    6.8934    1.6806   25.7221 O   0  0  0  0  0  0  0  0  0  0  0  0
    7.2565    3.2305   23.8541 N   0  0  0  0  0  0  0  0  0  0  0  0
    7.7795    3.5505   22.4980 C   0  0  0  0  0  0  0  0  0  0  0  0
    6.6806    4.6126   22.3771 C   0  0  0  0  0  0  0  0  0  0  0  0
    6.0045    3.9956   23.6071 C   0  0  0  0  0  0  0  0  0  0  0  0
    8.9233    1.3664   24.4031 N   0  0  1  0  0  0  0  0  0  0  0  0
   10.3123    1.4103   24.8740 C   0  0  0  0  0  0  0  0  0  0  0  0
    8.4432    0.0014   24.1241 C   0  0  0  0  0  0  0  0  0  0  0  0
    9.2011   -0.5726   22.9241 C   0  0  2  0  0  0  0  0  0  0  0  0
   10.7022   -0.3558   23.0690 C   0  0  0  0  0  0  0  0  0  0  0  0
   11.2052    0.6162   23.9530 C   0  0  0  0  0  0  0  0  0  0  0  0
   12.5773    0.8641   23.9880 C   0  0  0  0  0  0  0  0  0  0  0  0
   13.4502    0.1710   23.1740 C   0  0  0  0  0  0  0  0  0  0  0  0
   11.5961   -1.0819   22.2760 C   0  0  0  0  0  0  0  0  0  0  0  0
   12.9521   -0.8000   22.3360 C   0  0  0  0  0  0  0  0  0  0  0  0
   14.0510   -1.6631   21.2940 Cl  0  0  0  0  0  0  0  0  0  0  0  0
    8.6922    0.0904   21.6411 C   0  0  0  0  0  0  0  0  0  0  0  0
    9.2693    1.0493   21.1301 O   0  0  0  0  0  0  0  0  0  0  0  0
    7.5231   -0.4105   21.1611 N   0  0  0  0  0  0  0  0  0  0  0  0
    6.7622    0.0786   20.0681 C   0  0  0  0  0  0  0  0  0  0  0  0
    5.5692    0.8277   20.3331 C   0  0  0  0  0  0  0  0  0  0  0  0
    5.0323    1.0247   21.6321 C   0  0  0  0  0  0  0  0  0  0  0  0
    3.8913    1.7568   21.8201 C   0  0  0  0  0  0  0  0  0  0  0  0
    3.2334    2.3339   20.7401 C   0  0  0  0  0  0  0  0  0  0  0  0
    3.7063    2.1678   19.4701 C   0  0  0  0  0  0  0  0  0  0  0  0
    4.8783    1.4057   19.2291 C   0  0  0  0  0  0  0  0  0  0  0  0
    5.4042    1.1867   17.9321 C   0  0  0  0  0  0  0  0  0  0  0  0
    6.5012    0.4866   17.6831 N   0  0  0  0  0  0  0  0  0  0  0  0
    7.1511   -0.0415   18.7311 C   0  0  0  0  0  0  0  0  0  0  0  0
    8.8039    3.9510   22.4872 H   0  0  0  0  0  0  0  0  0  0  0  0
    7.6999    2.7274   21.7728 H   0  0  0  0  0  0  0  0  0  0  0  0
    7.0291    5.6460   22.5200 H   0  0  0  0  0  0  0  0  0  0  0  0
    6.0875    4.5502   21.4528 H   0  0  0  0  0  0  0  0  0  0  0  0
    5.1267    3.3727   23.3805 H   0  0  0  0  0  0  0  0  0  0  0  0
    5.7480    4.7175   24.3965 H   0  0  0  0  0  0  0  0  0  0  0  0
   10.6541    2.4555   24.8979 H   0  0  0  0  0  0  0  0  0  0  0  0
   10.3653    0.9840   25.8867 H   0  0  0  0  0  0  0  0  0  0  0  0
    8.6156   -0.6348   25.0048 H   0  0  0  0  0  0  0  0  0  0  0  0
    7.3671    0.0306   23.8979 H   0  0  0  0  0  0  0  0  0  0  0  0
    9.0029   -1.6530   22.8655 H   0  0  0  0  0  0  0  0  0  0  0  0
   12.9637    1.6120   24.6644 H   0  0  0  0  0  0  0  0  0  0  0  0
   14.5081    0.3875   23.1945 H   0  0  0  0  0  0  0  0  0  0  0  0
   11.2319   -1.8585   21.6200 H   0  0  0  0  0  0  0  0  0  0  0  0
    7.1585   -1.2142   21.6313 H   0  0  0  0  0  0  0  0  0  0  0  0
    5.5317    0.5902   22.4854 H   0  0  0  0  0  0  0  0  0  0  0  0
    3.4983    1.8876   22.8175 H   0  0  0  0  0  0  0  0  0  0  0  0
    2.3407    2.9184   20.9070 H   0  0  0  0  0  0  0  0  0  0  0  0
    3.1832    2.6211   18.6410 H   0  0  0  0  0  0  0  0  0  0  0  0
    4.8778    1.6176   17.0933 H   0  0  0  0  0  0  0  0  0  0  0  0
    8.0487   -0.6057   18.5247 H   0  0  0  0  0  0  0  0  0  0  0  0
  1  2  2  0  0  0  0
  2  3  2  0  0  0  0
  2  4  1  0  0  0  0
  2  8  1  0  0  0  0
  4  5  1  0  0  0  0
  4  7  1  0  0  0  0
  5  6  1  0  0  0  0
  5 32  1  0  0  0  0
  5 33  1  0  0  0  0
  6  7  1  0  0  0  0
  6 34  1  0  0  0  0
  6 35  1  0  0  0  0
  7 36  1  0  0  0  0
  7 37  1  0  0  0  0
  8  9  1  0  0  0  0
  8 10  1  0  0  0  0
  9 13  1  0  0  0  0
  9 38  1  0  0  0  0
  9 39  1  0  0  0  0
 10 11  1  0  0  0  0
 10 40  1  0  0  0  0
 10 41  1  0  0  0  0
 11 12  1  0  0  0  0
 11 19  1  0  0  0  0
 11 42  1  0  0  0  0
 12 13  2  0  0  0  0
 12 16  1  0  0  0  0
 13 14  1  0  0  0  0
 14 15  2  0  0  0  0
 14 43  1  0  0  0  0
 15 17  1  0  0  0  0
 15 44  1  0  0  0  0
 16 17  2  0  0  0  0
 16 45  1  0  0  0  0
 17 18  1  0  0  0  0
 19 20  2  0  0  0  0
 19 21  1  0  0  0  0
 21 22  1  0  0  0  0
 21 46  1  0  0  0  0
 22 23  2  0  0  0  0
 22 31  1  0  0  0  0
 23 24  1  0  0  0  0
 23 28  1  0  0  0  0
 24 25  2  0  0  0  0
 24 47  1  0  0  0  0
 25 26  1  0  0  0  0
 25 48  1  0  0  0  0
 26 27  2  0  0  0  0
 26 49  1  0  0  0  0
 27 28  1  0  0  0  0
 27 50  1  0  0  0  0
 28 29  2  0  0  0  0
 29 30  1  0  0  0  0
 29 51  1  0  0  0  0
 30 31  2  0  0  0  0
 31 52  1  0  0  0  0
M  END
> <compound_name>
EDJ-MED-1981ceba-2

> <provenance>
{"isomeric_smiles": "c1ccc2c(c1)cncc2NC(=O)[C@@H]3C[N@](Cc4c3cc(cc4)Cl)S(=O)(=O)N5CCC5", "inchi": "InChI=1S/C22H21ClN4O3S/c23-17-7-6-16-13-27(31(29,30)26-8-3-9-26)14-20(19(16)10-17)22(28)25-21-12-24-11-15-4-1-2-5-18(15)21/h1-2,4-7,10-12,20H,3,8-9,13-14H2,(H,25,28)/t20-/m1/s1", "inchi_key": "DAHOAXWCUDTPIS-HXUWFJFHSA-N", "fixed_inchi": "InChI=1/C22H21ClN4O3S/c23-17-7-6-16-13-27(31(29,30)26-8-3-9-26)14-20(19(16)10-17)22(28)25-21-12-24-11-15-4-1-2-5-18(15)21/h1-2,4-7,10-12,20H,3,8-9,13-14H2,(H,25,28)/t20-/m1/s1/f/h25H", "fixed_inchikey": "DAHOAXWCUDTPIS-KLFDUCQCNA-N"}

> <data_format>
sdf

$$$$
