LIG(A-306)
  -OEChem-06042511423D

 49 52  0     1  0  0  0  0  0999 V2000
   10.5386    3.0172   24.5177 O   0  0  0  0  0  0  0  0  0  0  0  0
   10.2112    1.8874   24.2011 C   0  0  0  0  0  0  0  0  0  0  0  0
    8.9143    1.4475   24.3251 N   0  0  0  0  0  0  0  0  0  0  0  0
    7.9531    2.2338   25.0793 C   0  0  0  0  0  0  0  0  0  0  0  0
    7.5276    3.5013   24.3557 C   0  0  0  0  0  0  0  0  0  0  0  0
    7.3089    4.5336   24.9849 O   0  0  0  0  0  0  0  0  0  0  0  0
    7.4022    3.4362   23.0343 N   0  0  0  0  0  0  0  0  0  0  0  0
    6.9404    4.5591   22.2430 C   0  0  0  0  0  0  0  0  0  0  0  0
   11.1562    0.9687   23.5433 C   0  0  0  0  0  0  0  0  0  0  0  0
   12.5029    1.3254   23.4489 C   0  0  0  0  0  0  0  0  0  0  0  0
   13.3971    0.5189   22.7727 C   0  0  0  0  0  0  0  0  0  0  0  0
   12.9465   -0.6534   22.2069 C   0  0  0  0  0  0  0  0  0  0  0  0
   14.0662   -1.6543   21.3227 Cl  0  0  0  0  0  0  0  0  0  0  0  0
   11.6187   -1.0330   22.2822 C   0  0  0  0  0  0  0  0  0  0  0  0
   10.6996   -0.2022   22.9256 C   0  0  0  0  0  0  0  0  0  0  0  0
    9.2169   -0.5008   22.8483 C   0  0  1  0  0  0  0  0  0  0  0  0
    8.5193    0.0555   24.0893 C   0  0  0  0  0  0  0  0  0  0  0  0
    8.6172    0.2146   21.6360 C   0  0  0  0  0  0  0  0  0  0  0  0
    9.0145    1.3186   21.2635 O   0  0  0  0  0  0  0  0  0  0  0  0
    7.5807   -0.4294   21.0540 N   0  0  0  0  0  0  0  0  0  0  0  0
    6.7845    0.0217   19.9833 C   0  0  0  0  0  0  0  0  0  0  0  0
    5.6272    0.8066   20.2855 C   0  0  0  0  0  0  0  0  0  0  0  0
    5.1369    1.0051   21.5996 C   0  0  0  0  0  0  0  0  0  0  0  0
    4.0255    1.7582   21.8296 C   0  0  0  0  0  0  0  0  0  0  0  0
    3.3835    2.3439   20.7676 C   0  0  0  0  0  0  0  0  0  0  0  0
    2.3022    3.1249   21.0297 F   0  0  0  0  0  0  0  0  0  0  0  0
    3.7789    2.1995   19.4768 C   0  0  0  0  0  0  0  0  0  0  0  0
    4.9212    1.4065   19.2036 C   0  0  0  0  0  0  0  0  0  0  0  0
    5.3965    1.1581   17.8923 C   0  0  0  0  0  0  0  0  0  0  0  0
    6.4528    0.4042   17.6113 N   0  0  0  0  0  0  0  0  0  0  0  0
    7.1159   -0.1443   18.6384 C   0  0  0  0  0  0  0  0  0  0  0  0
    7.0606    1.6169   25.2608 H   0  0  0  0  0  0  0  0  0  0  0  0
    8.4069    2.5143   26.0412 H   0  0  0  0  0  0  0  0  0  0  0  0
    7.6347    2.5819   22.5694 H   0  0  0  0  0  0  0  0  0  0  0  0
    6.9168    4.2747   21.1807 H   0  0  0  0  0  0  0  0  0  0  0  0
    5.9294    4.8456   22.5684 H   0  0  0  0  0  0  0  0  0  0  0  0
    7.6244    5.4097   22.3797 H   0  0  0  0  0  0  0  0  0  0  0  0
   12.8482    2.2397   23.9085 H   0  0  0  0  0  0  0  0  0  0  0  0
   14.4356    0.8034   22.6886 H   0  0  0  0  0  0  0  0  0  0  0  0
   11.2949   -1.9664   21.8460 H   0  0  0  0  0  0  0  0  0  0  0  0
    9.0477   -1.5849   22.7712 H   0  0  0  0  0  0  0  0  0  0  0  0
    7.4301    0.0090   23.9426 H   0  0  0  0  0  0  0  0  0  0  0  0
    8.7979   -0.5520   24.9630 H   0  0  0  0  0  0  0  0  0  0  0  0
    7.3533   -1.3292   21.4263 H   0  0  0  0  0  0  0  0  0  0  0  0
    5.6528    0.5516   22.4330 H   0  0  0  0  0  0  0  0  0  0  0  0
    3.6543    1.8928   22.8348 H   0  0  0  0  0  0  0  0  0  0  0  0
    3.2351    2.6784   18.6760 H   0  0  0  0  0  0  0  0  0  0  0  0
    4.8654    1.6109   17.0681 H   0  0  0  0  0  0  0  0  0  0  0  0
    7.9715   -0.7615   18.4077 H   0  0  0  0  0  0  0  0  0  0  0  0
  1  2  2  0  0  0  0
  2  3  1  0  0  0  0
  2  9  1  0  0  0  0
  3  4  1  0  0  0  0
  3 17  1  0  0  0  0
  4  5  1  0  0  0  0
  4 32  1  0  0  0  0
  4 33  1  0  0  0  0
  5  6  2  0  0  0  0
  5  7  1  0  0  0  0
  7  8  1  0  0  0  0
  7 34  1  0  0  0  0
  8 35  1  0  0  0  0
  8 36  1  0  0  0  0
  8 37  1  0  0  0  0
  9 10  2  0  0  0  0
  9 15  1  0  0  0  0
 10 11  1  0  0  0  0
 10 38  1  0  0  0  0
 11 12  2  0  0  0  0
 11 39  1  0  0  0  0
 12 13  1  0  0  0  0
 12 14  1  0  0  0  0
 14 15  2  0  0  0  0
 14 40  1  0  0  0  0
 15 16  1  0  0  0  0
 16 17  1  0  0  0  0
 16 18  1  0  0  0  0
 16 41  1  0  0  0  0
 17 42  1  0  0  0  0
 17 43  1  0  0  0  0
 18 19  2  0  0  0  0
 18 20  1  0  0  0  0
 20 21  1  0  0  0  0
 20 44  1  0  0  0  0
 21 22  2  0  0  0  0
 21 31  1  0  0  0  0
 22 23  1  0  0  0  0
 22 28  1  0  0  0  0
 23 24  2  0  0  0  0
 23 45  1  0  0  0  0
 24 25  1  0  0  0  0
 24 46  1  0  0  0  0
 25 26  1  0  0  0  0
 25 27  2  0  0  0  0
 27 28  1  0  0  0  0
 27 47  1  0  0  0  0
 28 29  2  0  0  0  0
 29 30  1  0  0  0  0
 29 48  1  0  0  0  0
 30 31  2  0  0  0  0
 31 49  1  0  0  0  0
M  END
> <compound_name>
MAT-POS-e119ab4f-1

> <provenance>
{"isomeric_smiles": "CNC(=O)CN1C[C@H](c2cc(ccc2C1=O)Cl)C(=O)Nc3cncc4c3ccc(c4)F", "inchi": "InChI=1S/C22H18ClFN4O3/c1-25-20(29)11-28-10-18(17-7-13(23)2-4-16(17)22(28)31)21(30)27-19-9-26-8-12-6-14(24)3-5-15(12)19/h2-9,18H,10-11H2,1H3,(H,25,29)(H,27,30)/t18-/m1/s1", "inchi_key": "VVKKILAVDZOKCI-GOSISDBHSA-N", "fixed_inchi": "InChI=1/C22H18ClFN4O3/c1-25-20(29)11-28-10-18(17-7-13(23)2-4-16(17)22(28)31)21(30)27-19-9-26-8-12-6-14(24)3-5-15(12)19/h2-9,18H,10-11H2,1H3,(H,25,29)(H,27,30)/t18-/m1/s1/f/h25,27H", "fixed_inchikey": "VVKKILAVDZOKCI-JYEZJMDJNA-N"}

> <data_format>
sdf

$$$$
