LIG(A-306)
  -OEChem-06042511423D

 46 49  0     1  0  0  0  0  0999 V2000
    9.5331    1.1921   21.2519 O   0  0  0  0  0  0  0  0  0  0  0  0
    9.0978    0.1518   21.7239 C   0  0  0  0  0  0  0  0  0  0  0  0
    9.8398   -0.5671   22.8877 C   0  0  1  0  0  0  0  0  0  0  0  0
   11.3595   -0.2849   22.8971 C   0  0  0  0  0  0  0  0  0  0  0  0
   12.1981   -1.0488   22.0867 C   0  0  0  0  0  0  0  0  0  0  0  0
   13.5100   -0.6521   21.8858 C   0  0  0  0  0  0  0  0  0  0  0  0
   14.4262   -1.4089   20.6173 Cl  0  0  0  0  0  0  0  0  0  0  0  0
   14.0541    0.4292   22.5450 C   0  0  0  0  0  0  0  0  0  0  0  0
   13.2635    1.1558   23.4132 C   0  0  0  0  0  0  0  0  0  0  0  0
   11.9327    0.8032   23.5793 C   0  0  0  0  0  0  0  0  0  0  0  0
   10.9918    1.7257   24.7367 S   0  0  0  0  0  0  0  0  0  0  0  0
   11.3052    3.1176   24.6026 O   0  0  0  0  0  0  0  0  0  0  0  0
   11.1121    1.1137   26.0275 O   0  0  0  0  0  0  0  0  0  0  0  0
    9.4679    1.4942   24.2075 N   0  0  0  0  0  0  0  0  0  0  0  0
    9.0992    0.0757   24.0795 C   0  0  0  0  0  0  0  0  0  0  0  0
    9.6060   -2.0962   22.8250 C   0  0  0  0  0  0  0  0  0  0  0  0
    9.9539   -2.8665   24.0889 C   0  0  0  0  0  0  0  0  0  0  0  0
    7.9650   -0.4401   21.2606 N   0  0  0  0  0  0  0  0  0  0  0  0
    7.1532   -0.0764   20.1610 C   0  0  0  0  0  0  0  0  0  0  0  0
    5.9783    0.7013   20.3967 C   0  0  0  0  0  0  0  0  0  0  0  0
    5.4809    1.0070   21.6896 C   0  0  0  0  0  0  0  0  0  0  0  0
    4.3348    1.7330   21.8471 C   0  0  0  0  0  0  0  0  0  0  0  0
    3.6413    2.2084   20.7460 C   0  0  0  0  0  0  0  0  0  0  0  0
    4.0798    1.9448   19.4813 C   0  0  0  0  0  0  0  0  0  0  0  0
    5.2427    1.1669   19.2696 C   0  0  0  0  0  0  0  0  0  0  0  0
    5.6929    0.7854   17.9853 C   0  0  0  0  0  0  0  0  0  0  0  0
    6.7508    0.0228   17.7667 N   0  0  0  0  0  0  0  0  0  0  0  0
    7.4535   -0.3824   18.8332 C   0  0  0  0  0  0  0  0  0  0  0  0
   11.8259   -1.9473   21.6168 H   0  0  0  0  0  0  0  0  0  0  0  0
   15.0860    0.7048   22.3844 H   0  0  0  0  0  0  0  0  0  0  0  0
   13.6779    1.9910   23.9580 H   0  0  0  0  0  0  0  0  0  0  0  0
    9.0909    2.1439   23.5473 H   0  0  0  0  0  0  0  0  0  0  0  0
    9.3715   -0.4544   25.0040 H   0  0  0  0  0  0  0  0  0  0  0  0
    8.0141   -0.0036   23.9174 H   0  0  0  0  0  0  0  0  0  0  0  0
    8.5415   -2.2670   22.6069 H   0  0  0  0  0  0  0  0  0  0  0  0
   10.2177   -2.4987   22.0042 H   0  0  0  0  0  0  0  0  0  0  0  0
    9.7506   -3.9364   23.9344 H   0  0  0  0  0  0  0  0  0  0  0  0
   11.0196   -2.7260   24.3221 H   0  0  0  0  0  0  0  0  0  0  0  0
    9.3434   -2.4943   24.9248 H   0  0  0  0  0  0  0  0  0  0  0  0
    7.6631   -1.2464   21.7691 H   0  0  0  0  0  0  0  0  0  0  0  0
    6.0160    0.6607   22.5615 H   0  0  0  0  0  0  0  0  0  0  0  0
    3.9652    1.9389   22.8408 H   0  0  0  0  0  0  0  0  0  0  0  0
    2.7449    2.7933   20.8902 H   0  0  0  0  0  0  0  0  0  0  0  0
    3.5343    2.3333   18.6341 H   0  0  0  0  0  0  0  0  0  0  0  0
    5.1380    1.1387   17.1288 H   0  0  0  0  0  0  0  0  0  0  0  0
    8.3233   -0.9958   18.6501 H   0  0  0  0  0  0  0  0  0  0  0  0
  1  2  2  0  0  0  0
  2  3  1  0  0  0  0
  2 18  1  0  0  0  0
  3  4  1  0  0  0  0
  3 15  1  0  0  0  0
  3 16  1  0  0  0  0
  4  5  2  0  0  0  0
  4 10  1  0  0  0  0
  5  6  1  0  0  0  0
  5 29  1  0  0  0  0
  6  7  1  0  0  0  0
  6  8  2  0  0  0  0
  8  9  1  0  0  0  0
  8 30  1  0  0  0  0
  9 10  2  0  0  0  0
  9 31  1  0  0  0  0
 10 11  1  0  0  0  0
 11 12  2  0  0  0  0
 11 13  2  0  0  0  0
 11 14  1  0  0  0  0
 14 15  1  0  0  0  0
 14 32  1  0  0  0  0
 15 33  1  0  0  0  0
 15 34  1  0  0  0  0
 16 17  1  0  0  0  0
 16 35  1  0  0  0  0
 16 36  1  0  0  0  0
 17 37  1  0  0  0  0
 17 38  1  0  0  0  0
 17 39  1  0  0  0  0
 18 19  1  0  0  0  0
 18 40  1  0  0  0  0
 19 20  2  0  0  0  0
 19 28  1  0  0  0  0
 20 21  1  0  0  0  0
 20 25  1  0  0  0  0
 21 22  2  0  0  0  0
 21 41  1  0  0  0  0
 22 23  1  0  0  0  0
 22 42  1  0  0  0  0
 23 24  2  0  0  0  0
 23 43  1  0  0  0  0
 24 25  1  0  0  0  0
 24 44  1  0  0  0  0
 25 26  2  0  0  0  0
 26 27  1  0  0  0  0
 26 45  1  0  0  0  0
 27 28  2  0  0  0  0
 28 46  1  0  0  0  0
M  END
> <compound_name>
ALP-POS-1cbc2fae-2

> <provenance>
{"isomeric_smiles": "CC[C@]1(CNS(=O)(=O)c2c1cc(cc2)Cl)C(=O)Nc3cncc4c3cccc4", "inchi": "InChI=1S/C20H18ClN3O3S/c1-2-20(12-23-28(26,27)18-8-7-14(21)9-16(18)20)19(25)24-17-11-22-10-13-5-3-4-6-15(13)17/h3-11,23H,2,12H2,1H3,(H,24,25)/t20-/m1/s1", "inchi_key": "MYVKMPCLLUQWHY-HXUWFJFHSA-N", "fixed_inchi": "InChI=1/C20H18ClN3O3S/c1-2-20(12-23-28(26,27)18-8-7-14(21)9-16(18)20)19(25)24-17-11-22-10-13-5-3-4-6-15(13)17/h3-11,23H,2,12H2,1H3,(H,24,25)/t20-/m1/s1/f/h24H", "fixed_inchikey": "MYVKMPCLLUQWHY-GOANIERMNA-N"}

> <data_format>
sdf

$$$$
