LIG(A-305)
  -OEChem-06042511333D

 52 56  0     0  0  0  0  0  0999 V2000
   13.6083   -2.0069   24.8083 S   0  0  0  0  0  0  0  0  0  0  0  0
    7.3099   -0.1867   19.8448 N   0  0  0  0  0  0  0  0  0  0  0  0
    9.6472   -0.3178   22.6946 N   0  0  0  0  0  0  0  0  0  0  0  0
    6.6748    0.4453   17.8748 N   0  0  0  0  0  0  0  0  0  0  0  0
    8.1620   -0.8687   20.7987 C   0  0  0  0  0  0  0  0  0  0  0  0
   13.8211   -1.8920   23.1113 C   0  0  0  0  0  0  0  0  0  0  0  0
    6.4073   -5.9255   27.3339 C   0  0  0  0  0  0  0  0  0  0  0  0
    6.7134   -3.5725   27.6519 O   0  0  0  0  0  0  0  0  0  0  0  0
   10.8112    0.3952   23.2085 C   0  0  0  0  0  0  0  0  0  0  0  0
    5.7779    0.9384   18.7939 C   0  0  0  0  0  0  0  0  0  0  0  0
    5.4491    0.8574   21.2009 C   0  0  0  0  0  0  0  0  0  0  0  0
    8.2162   -3.4707   25.1137 C   0  0  0  0  0  0  0  0  0  0  0  0
    4.2971    1.6165   21.0380 C   0  0  0  0  0  0  0  0  0  0  0  0
    3.8930    2.0405   19.7730 C   0  0  0  0  0  0  0  0  0  0  0  0
   12.8811   -1.0539   22.5553 C   0  0  0  0  0  0  0  0  0  0  0  0
    9.1252   -1.3997   23.4776 C   0  0  0  0  0  0  0  0  0  0  0  0
    4.9982   -6.2235   26.8920 C   0  0  0  0  0  0  0  0  0  0  0  0
    6.9693   -4.5706   26.9829 C   0  0  0  0  0  0  0  0  0  0  0  0
    9.5381   -2.7117   23.2486 C   0  0  0  0  0  0  0  0  0  0  0  0
   11.9832   -0.5049   23.5144 C   0  0  0  0  0  0  0  0  0  0  0  0
   12.2753   -0.9369   24.7764 C   0  0  0  0  0  0  0  0  0  0  0  0
    5.2734   -5.9685   28.3250 C   0  0  0  0  0  0  0  0  0  0  0  0
    8.2533   -1.1337   24.5307 C   0  0  0  0  0  0  0  0  0  0  0  0
    9.1101    0.0992   21.5076 C   0  0  0  0  0  0  0  0  0  0  0  0
    7.5848   -0.2287   18.5157 N   0  0  0  0  0  0  0  0  0  0  0  0
    9.3751    1.1862   21.0156 O   0  0  0  0  0  0  0  0  0  0  0  0
    6.1730    0.5304   20.0628 C   0  0  0  0  0  0  0  0  0  0  0  0
    4.6279    1.7094   18.6409 C   0  0  0  0  0  0  0  0  0  0  0  0
    7.8043   -2.1586   25.3438 C   0  0  0  0  0  0  0  0  0  0  0  0
    9.0891   -3.7367   24.0627 C   0  0  0  0  0  0  0  0  0  0  0  0
    7.7732   -4.5666   25.8928 N   0  0  0  0  0  0  0  0  0  0  0  0
    7.5297   -1.3628   21.5511 H   0  0  0  0  0  0  0  0  0  0  0  0
    8.7578   -1.6251   20.2667 H   0  0  0  0  0  0  0  0  0  0  0  0
   14.5891   -2.4074   22.5535 H   0  0  0  0  0  0  0  0  0  0  0  0
    7.1136   -6.7687   27.3484 H   0  0  0  0  0  0  0  0  0  0  0  0
   11.1266    1.1338   22.4568 H   0  0  0  0  0  0  0  0  0  0  0  0
   10.5206    0.9146   24.1336 H   0  0  0  0  0  0  0  0  0  0  0  0
    5.7704    0.5329   22.1796 H   0  0  0  0  0  0  0  0  0  0  0  0
    3.7068    1.8816   21.9027 H   0  0  0  0  0  0  0  0  0  0  0  0
    2.9967    2.6343   19.6714 H   0  0  0  0  0  0  0  0  0  0  0  0
   12.8298   -0.8351   21.4989 H   0  0  0  0  0  0  0  0  0  0  0  0
    4.4407   -5.4824   26.3003 H   0  0  0  0  0  0  0  0  0  0  0  0
    4.7312   -7.2365   26.5567 H   0  0  0  0  0  0  0  0  0  0  0  0
   10.2112   -2.9289   22.4325 H   0  0  0  0  0  0  0  0  0  0  0  0
   11.7257   -0.6361   25.6561 H   0  0  0  0  0  0  0  0  0  0  0  0
    4.9196   -5.0386   28.7944 H   0  0  0  0  0  0  0  0  0  0  0  0
    5.2102   -6.7926   29.0507 H   0  0  0  0  0  0  0  0  0  0  0  0
    7.9257   -0.1208   24.7135 H   0  0  0  0  0  0  0  0  0  0  0  0
    4.3140    2.0430   17.6630 H   0  0  0  0  0  0  0  0  0  0  0  0
    7.1317   -1.9417   26.1604 H   0  0  0  0  0  0  0  0  0  0  0  0
    9.4179   -4.7493   23.8814 H   0  0  0  0  0  0  0  0  0  0  0  0
    8.0999   -5.4641   25.5966 H   0  0  0  0  0  0  0  0  0  0  0  0
  1  6  1  0  0  0  0
  1 21  1  0  0  0  0
  2  5  1  0  0  0  0
  2 25  1  0  0  0  0
  2 27  1  0  0  0  0
  3  9  1  0  0  0  0
  3 16  1  0  0  0  0
  3 24  1  0  0  0  0
  4 10  1  0  0  0  0
  4 25  2  0  0  0  0
  5 24  1  0  0  0  0
  5 32  1  0  0  0  0
  5 33  1  0  0  0  0
  6 15  2  0  0  0  0
  6 34  1  0  0  0  0
  7 17  1  0  0  0  0
  7 18  1  0  0  0  0
  7 22  1  0  0  0  0
  7 35  1  0  0  0  0
  8 18  2  0  0  0  0
  9 20  1  0  0  0  0
  9 36  1  0  0  0  0
  9 37  1  0  0  0  0
 10 27  2  0  0  0  0
 10 28  1  0  0  0  0
 11 13  2  0  0  0  0
 11 27  1  0  0  0  0
 11 38  1  0  0  0  0
 12 29  1  0  0  0  0
 12 30  2  0  0  0  0
 12 31  1  0  0  0  0
 13 14  1  0  0  0  0
 13 39  1  0  0  0  0
 14 28  2  0  0  0  0
 14 40  1  0  0  0  0
 15 20  1  0  0  0  0
 15 41  1  0  0  0  0
 16 19  2  0  0  0  0
 16 23  1  0  0  0  0
 17 22  1  0  0  0  0
 17 42  1  0  0  0  0
 17 43  1  0  0  0  0
 18 31  1  0  0  0  0
 19 30  1  0  0  0  0
 19 44  1  0  0  0  0
 20 21  2  0  0  0  0
 21 45  1  0  0  0  0
 22 46  1  0  0  0  0
 22 47  1  0  0  0  0
 23 29  2  0  0  0  0
 23 48  1  0  0  0  0
 24 26  2  0  0  0  0
 28 49  1  0  0  0  0
 29 50  1  0  0  0  0
 30 51  1  0  0  0  0
 31 52  1  0  0  0  0
M  END
> <compound_name>
ALP-POS-c59291d4-3

> <provenance>
{"isomeric_smiles": "c1ccc2c(c1)nnn2CC(=O)N(Cc3ccsc3)c4ccc(cc4)NC(=O)C5CC5", "inchi": "InChI=1S/C23H21N5O2S/c29-22(14-28-21-4-2-1-3-20(21)25-26-28)27(13-16-11-12-31-15-16)19-9-7-18(8-10-19)24-23(30)17-5-6-17/h1-4,7-12,15,17H,5-6,13-14H2,(H,24,30)", "inchi_key": "OCKMJWOFMCSMEX-UHFFFAOYSA-N", "fixed_inchi": "InChI=1/C23H21N5O2S/c29-22(14-28-21-4-2-1-3-20(21)25-26-28)27(13-16-11-12-31-15-16)19-9-7-18(8-10-19)24-23(30)17-5-6-17/h1-4,7-12,15,17H,5-6,13-14H2,(H,24,30)/f/h24H", "fixed_inchikey": "OCKMJWOFMCSMEX-LQFNOIFHNA-N"}

> <data_format>
sdf

$$$$
