LIG(A-305)
  -OEChem-06042511343D

 32 33  0     0  0  0  0  0  0999 V2000
   14.4394   -1.9763   20.5440 N   0  0  0  0  0  0  0  0  0  0  0  0
   13.7214   -1.4484   21.2600 C   0  0  0  0  0  0  0  0  0  0  0  0
   12.8044   -0.8184   22.1730 C   0  0  0  0  0  0  0  0  0  0  0  0
   13.2813    0.0206   23.1780 C   0  0  0  0  0  0  0  0  0  0  0  0
   12.3953    0.5786   24.0840 C   0  0  0  0  0  0  0  0  0  0  0  0
   11.0393    0.3175   23.9800 C   0  0  0  0  0  0  0  0  0  0  0  0
   11.4384   -1.0765   22.0690 C   0  0  0  0  0  0  0  0  0  0  0  0
   10.5463   -0.5015   22.9710 C   0  0  0  0  0  0  0  0  0  0  0  0
    9.0604   -0.7296   22.8170 C   0  0  0  0  0  0  0  0  0  0  0  0
    8.5553    0.0504   21.6200 C   0  0  0  0  0  0  0  0  0  0  0  0
    9.1913    0.9864   21.1430 O   0  0  0  0  0  0  0  0  0  0  0  0
    7.3933   -0.3967   21.1121 N   0  0  0  0  0  0  0  0  0  0  0  0
    6.7373    0.1533   19.9941 C   0  0  0  0  0  0  0  0  0  0  0  0
    5.5282    0.8412   20.1741 C   0  0  0  0  0  0  0  0  0  0  0  0
    4.9253    1.0472   21.5411 C   0  0  0  0  0  0  0  0  0  0  0  0
    7.2613    0.0363   18.7041 C   0  0  0  0  0  0  0  0  0  0  0  0
    6.6662    0.5523   17.6221 N   0  0  0  0  0  0  0  0  0  0  0  0
    5.5092    1.1972   17.8041 C   0  0  0  0  0  0  0  0  0  0  0  0
    4.9172    1.3672   19.0401 C   0  0  0  0  0  0  0  0  0  0  0  0
   14.3374    0.2348   23.2500 H   0  0  0  0  0  0  0  0  0  0  0  0
   12.7623    1.2183   24.8730 H   0  0  0  0  0  0  0  0  0  0  0  0
   10.3560    0.7560   24.6921 H   0  0  0  0  0  0  0  0  0  0  0  0
   11.0707   -1.7241   21.2868 H   0  0  0  0  0  0  0  0  0  0  0  0
    8.8670   -1.8018   22.6651 H   0  0  0  0  0  0  0  0  0  0  0  0
    8.5402   -0.3881   23.7241 H   0  0  0  0  0  0  0  0  0  0  0  0
    6.9626   -1.1788   21.5623 H   0  0  0  0  0  0  0  0  0  0  0  0
    5.6273    1.6137   22.1705 H   0  0  0  0  0  0  0  0  0  0  0  0
    3.9838    1.6081   21.4457 H   0  0  0  0  0  0  0  0  0  0  0  0
    4.7244    0.0698   22.0041 H   0  0  0  0  0  0  0  0  0  0  0  0
    8.1917   -0.4963   18.5738 H   0  0  0  0  0  0  0  0  0  0  0  0
    5.0109    1.6072   16.9381 H   0  0  0  0  0  0  0  0  0  0  0  0
    3.9849    1.9055   19.1261 H   0  0  0  0  0  0  0  0  0  0  0  0
  1  2  3  0  0  0  0
  2  3  1  0  0  0  0
  3  4  2  0  0  0  0
  3  7  1  0  0  0  0
  4  5  1  0  0  0  0
  4 20  1  0  0  0  0
  5  6  2  0  0  0  0
  5 21  1  0  0  0  0
  6  8  1  0  0  0  0
  6 22  1  0  0  0  0
  7  8  2  0  0  0  0
  7 23  1  0  0  0  0
  8  9  1  0  0  0  0
  9 10  1  0  0  0  0
  9 24  1  0  0  0  0
  9 25  1  0  0  0  0
 10 11  2  0  0  0  0
 10 12  1  0  0  0  0
 12 13  1  0  0  0  0
 12 26  1  0  0  0  0
 13 14  2  0  0  0  0
 13 16  1  0  0  0  0
 14 15  1  0  0  0  0
 14 19  1  0  0  0  0
 15 27  1  0  0  0  0
 15 28  1  0  0  0  0
 15 29  1  0  0  0  0
 16 17  2  0  0  0  0
 16 30  1  0  0  0  0
 17 18  1  0  0  0  0
 18 19  2  0  0  0  0
 18 31  1  0  0  0  0
 19 32  1  0  0  0  0
M  END
> <compound_name>
TRY-UNI-714a760b-20

> <provenance>
{"isomeric_smiles": "Cc1ccncc1NC(=O)Cc2cccc(c2)C#N", "inchi": "InChI=1S/C15H13N3O/c1-11-5-6-17-10-14(11)18-15(19)8-12-3-2-4-13(7-12)9-16/h2-7,10H,8H2,1H3,(H,18,19)", "inchi_key": "OTFRLGRHXMKEAF-UHFFFAOYSA-N", "fixed_inchi": "InChI=1/C15H13N3O/c1-11-5-6-17-10-14(11)18-15(19)8-12-3-2-4-13(7-12)9-16/h2-7,10H,8H2,1H3,(H,18,19)/f/h18H", "fixed_inchikey": "OTFRLGRHXMKEAF-GPQMBLKYNA-N"}

> <data_format>
sdf

$$$$
