LIG(A-306)
  -OEChem-06042511383D

 67 70  0     1  0  0  0  0  0999 V2000
    5.4083   -2.0264   21.3040 O   0  0  0  0  0  0  0  0  0  0  0  0
    6.5594   -2.2134   21.6608 C   0  0  0  0  0  0  0  0  0  0  0  0
    6.9115   -3.6154   22.0577 C   0  0  0  0  0  0  0  0  0  0  0  0
    7.9767   -3.9824   22.8294 O   0  0  0  0  0  0  0  0  0  0  0  0
    7.8588   -5.3454   23.0184 C   0  0  0  0  0  0  0  0  0  0  0  0
    6.7847   -5.8134   22.4025 C   0  0  0  0  0  0  0  0  0  0  0  0
    6.1605   -4.7034   21.7707 C   0  0  0  0  0  0  0  0  0  0  0  0
    7.4683   -1.2133   21.7737 N   0  0  0  0  0  0  0  0  0  0  0  0
    8.7685   -1.3733   22.3685 C   0  0  0  0  0  0  0  0  0  0  0  0
    8.9297   -1.2454   23.7464 C   0  0  0  0  0  0  0  0  0  0  0  0
   10.1918   -1.3004   24.3072 C   0  0  0  0  0  0  0  0  0  0  0  0
    9.8933   -1.5782   21.5722 C   0  0  0  0  0  0  0  0  0  0  0  0
   11.1534   -1.6422   22.1470 C   0  0  0  0  0  0  0  0  0  0  0  0
   11.3227   -1.5133   23.5250 C   0  0  0  0  0  0  0  0  0  0  0  0
   12.6958   -1.6422   24.2017 C   0  0  0  0  0  0  0  0  0  0  0  0
   12.6871   -2.8413   25.1576 C   0  0  0  0  0  0  0  0  0  0  0  0
   12.9969   -0.3763   25.0177 C   0  0  0  0  0  0  0  0  0  0  0  0
   13.8486   -1.8431   23.1995 C   0  0  0  0  0  0  0  0  0  0  0  0
    7.0202    0.1677   21.4679 C   0  0  2  0  0  0  0  0  0  0  0  0
    6.3679    0.3047   20.1000 C   0  0  0  0  0  0  0  0  0  0  0  0
    6.9887   -0.1472   18.9409 C   0  0  0  0  0  0  0  0  0  0  0  0
    6.5845    0.1619   17.7010 N   0  0  0  0  0  0  0  0  0  0  0  0
    5.4984    0.9339   17.5842 C   0  0  0  0  0  0  0  0  0  0  0  0
    4.7896    1.4128   18.6694 C   0  0  0  0  0  0  0  0  0  0  0  0
    5.2339    1.0837   19.9383 C   0  0  0  0  0  0  0  0  0  0  0  0
    8.1122    1.2327   21.6698 C   0  0  0  0  0  0  0  0  0  0  0  0
    9.0140    1.3708   20.8536 O   0  0  0  0  0  0  0  0  0  0  0  0
    7.9694    1.9946   22.7528 N   0  0  0  0  0  0  0  0  0  0  0  0
    8.9314    3.0357   23.0937 C   0  0  0  0  0  0  0  0  0  0  0  0
   10.2885    2.4447   23.4794 C   0  0  0  0  0  0  0  0  0  0  0  0
   11.3914    3.4757   23.5413 C   0  0  0  0  0  0  0  0  0  0  0  0
   12.1572    3.7509   22.4132 C   0  0  0  0  0  0  0  0  0  0  0  0
   13.1312    4.7169   22.4890 C   0  0  0  0  0  0  0  0  0  0  0  0
   13.8290    5.0140   21.3629 F   0  0  0  0  0  0  0  0  0  0  0  0
   13.4064    5.4198   23.6300 C   0  0  0  0  0  0  0  0  0  0  0  0
   12.6476    5.1417   24.7562 C   0  0  0  0  0  0  0  0  0  0  0  0
   11.6496    4.1787   24.7123 C   0  0  0  0  0  0  0  0  0  0  0  0
    8.5490   -5.9474   23.5907 H   0  0  0  0  0  0  0  0  0  0  0  0
    6.4478   -6.8393   22.3837 H   0  0  0  0  0  0  0  0  0  0  0  0
    5.2595   -4.7246   21.1757 H   0  0  0  0  0  0  0  0  0  0  0  0
    8.0656   -1.1028   24.3785 H   0  0  0  0  0  0  0  0  0  0  0  0
   10.3025   -1.1755   25.3742 H   0  0  0  0  0  0  0  0  0  0  0  0
    9.7833   -1.6876   20.5034 H   0  0  0  0  0  0  0  0  0  0  0  0
   12.0176   -1.7943   21.5173 H   0  0  0  0  0  0  0  0  0  0  0  0
   13.6708   -2.9324   25.6414 H   0  0  0  0  0  0  0  0  0  0  0  0
   11.9134   -2.6924   25.9253 H   0  0  0  0  0  0  0  0  0  0  0  0
   12.4703   -3.7595   24.5919 H   0  0  0  0  0  0  0  0  0  0  0  0
   13.9809   -0.4753   25.4993 H   0  0  0  0  0  0  0  0  0  0  0  0
   13.0019    0.4978   24.3499 H   0  0  0  0  0  0  0  0  0  0  0  0
   12.2233   -0.2444   25.7885 H   0  0  0  0  0  0  0  0  0  0  0  0
   14.7995   -1.9279   23.7458 H   0  0  0  0  0  0  0  0  0  0  0  0
   13.6752   -2.7624   22.6207 H   0  0  0  0  0  0  0  0  0  0  0  0
   13.8941   -0.9826   22.5158 H   0  0  0  0  0  0  0  0  0  0  0  0
    6.2346    0.4056   22.2002 H   0  0  0  0  0  0  0  0  0  0  0  0
    7.8516   -0.7880   19.0464 H   0  0  0  0  0  0  0  0  0  0  0  0
    5.1588    1.1957   16.5930 H   0  0  0  0  0  0  0  0  0  0  0  0
    3.9124    2.0274   18.5311 H   0  0  0  0  0  0  0  0  0  0  0  0
    4.6945    1.4354   20.8053 H   0  0  0  0  0  0  0  0  0  0  0  0
    7.1800    1.8485   23.3491 H   0  0  0  0  0  0  0  0  0  0  0  0
    9.0642    3.6972   22.2249 H   0  0  0  0  0  0  0  0  0  0  0  0
    8.5416    3.6179   23.9417 H   0  0  0  0  0  0  0  0  0  0  0  0
   10.1957    1.9724   24.4685 H   0  0  0  0  0  0  0  0  0  0  0  0
   10.5629    1.6837   22.7340 H   0  0  0  0  0  0  0  0  0  0  0  0
   11.9888    3.2133   21.4917 H   0  0  0  0  0  0  0  0  0  0  0  0
   14.1874    6.1654   23.6525 H   0  0  0  0  0  0  0  0  0  0  0  0
   12.8345    5.6786   25.6745 H   0  0  0  0  0  0  0  0  0  0  0  0
   11.0669    3.9730   25.5980 H   0  0  0  0  0  0  0  0  0  0  0  0
  1  2  2  0  0  0  0
  2  3  1  0  0  0  0
  2  8  1  0  0  0  0
  3  4  1  0  0  0  0
  3  7  2  0  0  0  0
  4  5  1  0  0  0  0
  5  6  2  0  0  0  0
  5 38  1  0  0  0  0
  6  7  1  0  0  0  0
  6 39  1  0  0  0  0
  7 40  1  0  0  0  0
  8  9  1  0  0  0  0
  8 19  1  0  0  0  0
  9 10  2  0  0  0  0
  9 12  1  0  0  0  0
 10 11  1  0  0  0  0
 10 41  1  0  0  0  0
 11 14  2  0  0  0  0
 11 42  1  0  0  0  0
 12 13  2  0  0  0  0
 12 43  1  0  0  0  0
 13 14  1  0  0  0  0
 13 44  1  0  0  0  0
 14 15  1  0  0  0  0
 15 16  1  0  0  0  0
 15 17  1  0  0  0  0
 15 18  1  0  0  0  0
 16 45  1  0  0  0  0
 16 46  1  0  0  0  0
 16 47  1  0  0  0  0
 17 48  1  0  0  0  0
 17 49  1  0  0  0  0
 17 50  1  0  0  0  0
 18 51  1  0  0  0  0
 18 52  1  0  0  0  0
 18 53  1  0  0  0  0
 19 20  1  0  0  0  0
 19 26  1  0  0  0  0
 19 54  1  0  0  0  0
 20 21  2  0  0  0  0
 20 25  1  0  0  0  0
 21 22  1  0  0  0  0
 21 55  1  0  0  0  0
 22 23  2  0  0  0  0
 23 24  1  0  0  0  0
 23 56  1  0  0  0  0
 24 25  2  0  0  0  0
 24 57  1  0  0  0  0
 25 58  1  0  0  0  0
 26 27  2  0  0  0  0
 26 28  1  0  0  0  0
 28 29  1  0  0  0  0
 28 59  1  0  0  0  0
 29 30  1  0  0  0  0
 29 60  1  0  0  0  0
 29 61  1  0  0  0  0
 30 31  1  0  0  0  0
 30 62  1  0  0  0  0
 30 63  1  0  0  0  0
 31 32  2  0  0  0  0
 31 37  1  0  0  0  0
 32 33  1  0  0  0  0
 32 64  1  0  0  0  0
 33 34  1  0  0  0  0
 33 35  2  0  0  0  0
 35 36  1  0  0  0  0
 35 65  1  0  0  0  0
 36 37  2  0  0  0  0
 36 66  1  0  0  0  0
 37 67  1  0  0  0  0
M  END
> <compound_name>
MAT-POS-f2460aef-1

> <provenance>
{"isomeric_smiles": "CC(C)(C)c1ccc(cc1)N([C@H](c2cccnc2)C(=O)NCCc3cccc(c3)F)C(=O)c4ccco4", "inchi": "InChI=1S/C30H30FN3O3/c1-30(2,3)23-11-13-25(14-12-23)34(29(36)26-10-6-18-37-26)27(22-8-5-16-32-20-22)28(35)33-17-15-21-7-4-9-24(31)19-21/h4-14,16,18-20,27H,15,17H2,1-3H3,(H,33,35)/t27-/m1/s1", "inchi_key": "WPJAOHFPXGCVSV-HHHXNRCGSA-N", "fixed_inchi": "InChI=1/C30H30FN3O3/c1-30(2,3)23-11-13-25(14-12-23)34(29(36)26-10-6-18-37-26)27(22-8-5-16-32-20-22)28(35)33-17-15-21-7-4-9-24(31)19-21/h4-14,16,18-20,27H,15,17H2,1-3H3,(H,33,35)/t27-/m1/s1/f/h33H", "fixed_inchikey": "WPJAOHFPXGCVSV-WWCKWUEONA-N"}

> <data_format>
sdf

$$$$
