LIG(A-306)
  -OEChem-06042511413D

 41 44  0     1  0  0  0  0  0999 V2000
   13.7406   -1.7584   21.4976 Cl  0  0  0  0  0  0  0  0  0  0  0  0
   12.4327   -1.0195   22.3648 C   0  0  0  0  0  0  0  0  0  0  0  0
   12.6748   -0.0645   23.3448 C   0  0  0  0  0  0  0  0  0  0  0  0
   14.2928    0.3386   23.8186 Cl  0  0  0  0  0  0  0  0  0  0  0  0
   11.1356   -1.3765   22.0500 C   0  0  0  0  0  0  0  0  0  0  0  0
   10.0577   -0.7876   22.7082 C   0  0  0  0  0  0  0  0  0  0  0  0
   10.3128    0.1714   23.7022 C   0  0  0  0  0  0  0  0  0  0  0  0
   11.6218    0.5374   24.0050 C   0  0  0  0  0  0  0  0  0  0  0  0
    8.6287   -1.1766   22.3874 C   0  0  1  0  0  0  0  0  0  0  0  0
    7.7809   -1.0777   23.6735 C   0  0  0  0  0  0  0  0  0  0  0  0
    7.8749    0.3193   24.2635 C   0  0  0  0  0  0  0  0  0  0  0  0
    9.2699    0.7293   24.4204 N   0  0  0  0  0  0  0  0  0  0  0  0
    8.0995   -0.2336   21.3055 C   0  0  0  0  0  0  0  0  0  0  0  0
    8.6654    0.8254   21.0224 O   0  0  0  0  0  0  0  0  0  0  0  0
    6.9654   -0.6587   20.7037 N   0  0  0  0  0  0  0  0  0  0  0  0
    6.2942    0.0123   19.6568 C   0  0  0  0  0  0  0  0  0  0  0  0
    5.2512    0.9053   19.9400 C   0  0  0  0  0  0  0  0  0  0  0  0
    4.7494    1.1562   21.3550 C   0  0  0  0  0  0  0  0  0  0  0  0
    3.5554    2.0362   21.6152 C   0  0  0  0  0  0  0  0  0  0  0  0
    4.9105    2.5192   21.9751 C   0  0  0  0  0  0  0  0  0  0  0  0
    4.6870    1.6033   18.8791 C   0  0  0  0  0  0  0  0  0  0  0  0
    5.1669    1.3944   17.6040 C   0  0  0  0  0  0  0  0  0  0  0  0
    6.1549    0.5434   17.3128 N   0  0  0  0  0  0  0  0  0  0  0  0
    6.6990   -0.1346   18.3297 C   0  0  0  0  0  0  0  0  0  0  0  0
   10.9555   -2.1190   21.2867 H   0  0  0  0  0  0  0  0  0  0  0  0
   11.8132    1.2907   24.7549 H   0  0  0  0  0  0  0  0  0  0  0  0
    8.6027   -2.2114   22.0151 H   0  0  0  0  0  0  0  0  0  0  0  0
    6.7306   -1.2999   23.4334 H   0  0  0  0  0  0  0  0  0  0  0  0
    8.1511   -1.8074   24.4087 H   0  0  0  0  0  0  0  0  0  0  0  0
    7.3649    1.0276   23.5940 H   0  0  0  0  0  0  0  0  0  0  0  0
    7.3846    0.3276   25.2482 H   0  0  0  0  0  0  0  0  0  0  0  0
    9.3914    1.6984   24.6353 H   0  0  0  0  0  0  0  0  0  0  0  0
    6.5693   -1.5184   21.0260 H   0  0  0  0  0  0  0  0  0  0  0  0
    4.8678    0.3091   22.0467 H   0  0  0  0  0  0  0  0  0  0  0  0
    3.0163    2.4927   20.7721 H   0  0  0  0  0  0  0  0  0  0  0  0
    2.8398    1.7698   22.4070 H   0  0  0  0  0  0  0  0  0  0  0  0
    5.3739    3.3331   21.3981 H   0  0  0  0  0  0  0  0  0  0  0  0
    5.1974    2.6102   23.0330 H   0  0  0  0  0  0  0  0  0  0  0  0
    3.8815    2.3018   19.0517 H   0  0  0  0  0  0  0  0  0  0  0  0
    4.7185    1.9504   16.7939 H   0  0  0  0  0  0  0  0  0  0  0  0
    7.4938   -0.8327   18.1118 H   0  0  0  0  0  0  0  0  0  0  0  0
  1  2  1  0  0  0  0
  2  3  1  0  0  0  0
  2  5  2  0  0  0  0
  3  4  1  0  0  0  0
  3  8  2  0  0  0  0
  5  6  1  0  0  0  0
  5 25  1  0  0  0  0
  6  7  2  0  0  0  0
  6  9  1  0  0  0  0
  7  8  1  0  0  0  0
  7 12  1  0  0  0  0
  8 26  1  0  0  0  0
  9 10  1  0  0  0  0
  9 13  1  0  0  0  0
  9 27  1  0  0  0  0
 10 11  1  0  0  0  0
 10 28  1  0  0  0  0
 10 29  1  0  0  0  0
 11 12  1  0  0  0  0
 11 30  1  0  0  0  0
 11 31  1  0  0  0  0
 12 32  1  0  0  0  0
 13 14  2  0  0  0  0
 13 15  1  0  0  0  0
 15 16  1  0  0  0  0
 15 33  1  0  0  0  0
 16 17  2  0  0  0  0
 16 24  1  0  0  0  0
 17 18  1  0  0  0  0
 17 21  1  0  0  0  0
 18 19  1  0  0  0  0
 18 20  1  0  0  0  0
 18 34  1  0  0  0  0
 19 20  1  0  0  0  0
 19 35  1  0  0  0  0
 19 36  1  0  0  0  0
 20 37  1  0  0  0  0
 20 38  1  0  0  0  0
 21 22  2  0  0  0  0
 21 39  1  0  0  0  0
 22 23  1  0  0  0  0
 22 40  1  0  0  0  0
 23 24  2  0  0  0  0
 24 41  1  0  0  0  0
M  END
> <compound_name>
ALP-UNI-8d415491-1

> <provenance>
{"isomeric_smiles": "c1cncc(c1C2CC2)NC(=O)[C@@H]3CCNc4c3cc(c(c4)Cl)Cl", "inchi": "InChI=1S/C18H17Cl2N3O/c19-14-7-13-12(4-6-22-16(13)8-15(14)20)18(24)23-17-9-21-5-3-11(17)10-1-2-10/h3,5,7-10,12,22H,1-2,4,6H2,(H,23,24)/t12-/m1/s1", "inchi_key": "SAWVWQKOOIRWCC-GFCCVEGCSA-N", "fixed_inchi": "InChI=1/C18H17Cl2N3O/c19-14-7-13-12(4-6-22-16(13)8-15(14)20)18(24)23-17-9-21-5-3-11(17)10-1-2-10/h3,5,7-10,12,22H,1-2,4,6H2,(H,23,24)/t12-/m1/s1/f/h23H", "fixed_inchikey": "SAWVWQKOOIRWCC-AYDZMWSVNA-N"}

> <data_format>
sdf

$$$$
