LIG(A-305)
  -OEChem-06042511313D

 34 37  0     1  0  0  0  0  0999 V2000
    8.7663    1.2643   21.1524 O   0  0  0  0  0  0  0  0  0  0  0  0
    8.3633    0.1203   21.3295 C   0  0  0  0  0  0  0  0  0  0  0  0
    8.7993   -0.7296   22.5245 C   0  0  2  0  0  0  0  0  0  0  0  0
    8.3123   -0.0736   23.8125 C   0  0  0  0  0  0  0  0  0  0  0  0
    9.4594    0.6484   24.3394 O   0  0  0  0  0  0  0  0  0  0  0  0
   10.3013   -0.6697   22.7034 C   0  0  0  0  0  0  0  0  0  0  0  0
   10.6023    0.2504   23.6854 C   0  0  0  0  0  0  0  0  0  0  0  0
   11.9053    0.6154   23.9793 C   0  0  0  0  0  0  0  0  0  0  0  0
   12.9323    0.0093   23.2774 C   0  0  0  0  0  0  0  0  0  0  0  0
   11.3333   -1.2957   22.0205 C   0  0  0  0  0  0  0  0  0  0  0  0
   12.6333   -0.9567   22.3304 C   0  0  0  0  0  0  0  0  0  0  0  0
   13.9263   -1.8398   21.5874 Cl  0  0  0  0  0  0  0  0  0  0  0  0
    7.4812   -0.4847   20.4915 N   0  0  0  0  0  0  0  0  0  0  0  0
    6.9642    0.0482   19.3455 C   0  0  0  0  0  0  0  0  0  0  0  0
    5.7292    0.6502   19.3095 N   0  0  0  0  0  0  0  0  0  0  0  0
    5.6022    1.0692   18.0105 C   0  0  0  0  0  0  0  0  0  0  0  0
    6.6562    0.7621   17.3115 N   0  0  0  0  0  0  0  0  0  0  0  0
    7.5352    0.1041   18.1555 N   0  0  0  0  0  0  0  0  0  0  0  0
    4.7863    0.8523   20.4325 C   0  0  0  0  0  0  0  0  0  0  0  0
    5.1393    1.8474   21.4834 C   0  0  0  0  0  0  0  0  0  0  0  0
    4.0413    2.1403   20.5084 C   0  0  0  0  0  0  0  0  0  0  0  0
    8.4397   -1.7654   22.4363 H   0  0  0  0  0  0  0  0  0  0  0  0
    7.4853    0.6203   23.6014 H   0  0  0  0  0  0  0  0  0  0  0  0
    7.9763   -0.8371   24.5295 H   0  0  0  0  0  0  0  0  0  0  0  0
   12.1150    1.3550   24.7379 H   0  0  0  0  0  0  0  0  0  0  0  0
   13.9587    0.2871   23.4661 H   0  0  0  0  0  0  0  0  0  0  0  0
   11.1227   -2.0340   21.2609 H   0  0  0  0  0  0  0  0  0  0  0  0
    7.1826   -1.4070   20.7372 H   0  0  0  0  0  0  0  0  0  0  0  0
    4.7394    1.5869   17.6181 H   0  0  0  0  0  0  0  0  0  0  0  0
    4.2428   -0.0401   20.7765 H   0  0  0  0  0  0  0  0  0  0  0  0
    4.8996    1.6433   22.5375 H   0  0  0  0  0  0  0  0  0  0  0  0
    6.0900    2.3974   21.4235 H   0  0  0  0  0  0  0  0  0  0  0  0
    2.9943    2.1516   20.8456 H   0  0  0  0  0  0  0  0  0  0  0  0
    4.1847    2.9058   19.7316 H   0  0  0  0  0  0  0  0  0  0  0  0
  1  2  2  0  0  0  0
  2  3  1  0  0  0  0
  2 13  1  0  0  0  0
  3  4  1  0  0  0  0
  3  6  1  0  0  0  0
  3 22  1  0  0  0  0
  4  5  1  0  0  0  0
  4 23  1  0  0  0  0
  4 24  1  0  0  0  0
  5  7  1  0  0  0  0
  6  7  2  0  0  0  0
  6 10  1  0  0  0  0
  7  8  1  0  0  0  0
  8  9  2  0  0  0  0
  8 25  1  0  0  0  0
  9 11  1  0  0  0  0
  9 26  1  0  0  0  0
 10 11  2  0  0  0  0
 10 27  1  0  0  0  0
 11 12  1  0  0  0  0
 13 14  1  0  0  0  0
 13 28  1  0  0  0  0
 14 15  1  0  0  0  0
 14 18  2  0  0  0  0
 15 16  1  0  0  0  0
 15 19  1  0  0  0  0
 16 17  2  0  0  0  0
 16 29  1  0  0  0  0
 17 18  1  0  0  0  0
 19 20  1  0  0  0  0
 19 21  1  0  0  0  0
 19 30  1  0  0  0  0
 20 21  1  0  0  0  0
 20 31  1  0  0  0  0
 20 32  1  0  0  0  0
 21 33  1  0  0  0  0
 21 34  1  0  0  0  0
M  END
> <compound_name>
NAU-LAT-8502cac5-2

> <provenance>
{"isomeric_smiles": "c1cc2c(cc1Cl)[C@@H](CO2)C(=O)Nc3nncn3C4CC4", "inchi": "InChI=1S/C14H13ClN4O2/c15-8-1-4-12-10(5-8)11(6-21-12)13(20)17-14-18-16-7-19(14)9-2-3-9/h1,4-5,7,9,11H,2-3,6H2,(H,17,18,20)/t11-/m1/s1", "inchi_key": "UWYNTVRTJWFJEK-LLVKDONJSA-N", "fixed_inchi": "InChI=1/C14H13ClN4O2/c15-8-1-4-12-10(5-8)11(6-21-12)13(20)17-14-18-16-7-19(14)9-2-3-9/h1,4-5,7,9,11H,2-3,6H2,(H,17,18,20)/t11-/m1/s1/f/h17H", "fixed_inchikey": "UWYNTVRTJWFJEK-NGKYRNKINA-N"}

> <data_format>
sdf

$$$$
