LIG(A-305)
  -OEChem-06042511373D

 43 46  0     1  0  0  0  0  0999 V2000
    9.5216    1.2375   21.2962 O   0  0  0  0  0  0  0  0  0  0  0  0
    8.9327    0.2404   21.7092 C   0  0  0  0  0  0  0  0  0  0  0  0
    9.3537   -0.4925   22.9842 C   0  0  2  0  0  0  0  0  0  0  0  0
    8.6716    0.1805   24.1841 C   0  0  0  0  0  0  0  0  0  0  0  0
    9.4464    1.4026   24.6031 C   0  0  0  0  0  0  0  0  0  0  0  0
   10.7934    1.0528   24.9812 O   0  0  0  0  0  0  0  0  0  0  0  0
   10.8677   -0.4253   23.0543 C   0  0  0  0  0  0  0  0  0  0  0  0
   11.4905    0.3778   24.0113 C   0  0  0  0  0  0  0  0  0  0  0  0
   12.8655    0.5460   24.0304 C   0  0  0  0  0  0  0  0  0  0  0  0
   13.6426   -0.0910   23.0805 C   0  0  0  0  0  0  0  0  0  0  0  0
   11.6728   -1.0972   22.1324 C   0  0  0  0  0  0  0  0  0  0  0  0
   13.0398   -0.9151   22.1595 C   0  0  0  0  0  0  0  0  0  0  0  0
   14.0269   -1.7660   21.0035 Cl  0  0  0  0  0  0  0  0  0  0  0  0
    7.9028   -0.3087   21.0611 N   0  0  0  0  0  0  0  0  0  0  0  0
    6.8898    0.1032   20.1880 C   0  0  0  0  0  0  0  0  0  0  0  0
    5.7567    0.9001   20.4129 C   0  0  0  0  0  0  0  0  0  0  0  0
    5.3076    1.1971   21.8219 C   0  0  0  0  0  0  0  0  0  0  0  0
    4.2795    2.2400   21.8958 N   0  3  0  0  0  0  0  0  0  0  0  0
    3.2306    2.0488   20.8787 C   0  0  0  0  0  0  0  0  0  0  0  0
    3.7866    2.1988   19.4818 C   0  0  0  0  0  0  0  0  0  0  0  0
    5.0457    1.3829   19.3039 C   0  0  0  0  0  0  0  0  0  0  0  0
    5.5338    1.0909   18.0459 C   0  0  0  0  0  0  0  0  0  0  0  0
    6.6329    0.3700   17.8130 N   0  0  0  0  0  0  0  0  0  0  0  0
    7.2779   -0.1228   18.8691 C   0  0  0  0  0  0  0  0  0  0  0  0
    9.0334   -1.5431   22.9249 H   0  0  0  0  0  0  0  0  0  0  0  0
    7.6501    0.4764   23.9029 H   0  0  0  0  0  0  0  0  0  0  0  0
    8.6298   -0.5291   25.0237 H   0  0  0  0  0  0  0  0  0  0  0  0
    9.4808    2.1127   23.7637 H   0  0  0  0  0  0  0  0  0  0  0  0
    8.9421    1.8725   25.4604 H   0  0  0  0  0  0  0  0  0  0  0  0
   13.3270    1.1698   24.7816 H   0  0  0  0  0  0  0  0  0  0  0  0
   14.7122    0.0572   23.0621 H   0  0  0  0  0  0  0  0  0  0  0  0
   11.2274   -1.7562   21.4018 H   0  0  0  0  0  0  0  0  0  0  0  0
    7.8368   -1.2878   21.2534 H   0  0  0  0  0  0  0  0  0  0  0  0
    4.9006    0.2740   22.2604 H   0  0  0  0  0  0  0  0  0  0  0  0
    6.1807    1.5258   22.4045 H   0  0  0  0  0  0  0  0  0  0  0  0
    3.8589    2.2160   22.8028 H   0  0  0  0  0  0  0  0  0  0  0  0
    4.7111    3.1305   21.7520 H   0  0  0  0  0  0  0  0  0  0  0  0
    2.8045    1.0407   20.9885 H   0  0  0  0  0  0  0  0  0  0  0  0
    2.4412    2.7992   21.0327 H   0  0  0  0  0  0  0  0  0  0  0  0
    3.0327    1.8576   18.7570 H   0  0  0  0  0  0  0  0  0  0  0  0
    4.0172    3.2588   19.2993 H   0  0  0  0  0  0  0  0  0  0  0  0
    4.9902    1.4710   17.1936 H   0  0  0  0  0  0  0  0  0  0  0  0
    8.1518   -0.7326   18.6929 H   0  0  0  0  0  0  0  0  0  0  0  0
  1  2  2  0  0  0  0
  2  3  1  0  0  0  0
  2 14  1  0  0  0  0
  3  4  1  0  0  0  0
  3  7  1  0  0  0  0
  3 25  1  0  0  0  0
  4  5  1  0  0  0  0
  4 26  1  0  0  0  0
  4 27  1  0  0  0  0
  5  6  1  0  0  0  0
  5 28  1  0  0  0  0
  5 29  1  0  0  0  0
  6  8  1  0  0  0  0
  7  8  2  0  0  0  0
  7 11  1  0  0  0  0
  8  9  1  0  0  0  0
  9 10  2  0  0  0  0
  9 30  1  0  0  0  0
 10 12  1  0  0  0  0
 10 31  1  0  0  0  0
 11 12  2  0  0  0  0
 11 32  1  0  0  0  0
 12 13  1  0  0  0  0
 14 15  1  0  0  0  0
 14 33  1  0  0  0  0
 15 16  2  0  0  0  0
 15 24  1  0  0  0  0
 16 17  1  0  0  0  0
 16 21  1  0  0  0  0
 17 18  1  0  0  0  0
 17 34  1  0  0  0  0
 17 35  1  0  0  0  0
 18 19  1  0  0  0  0
 18 36  1  0  0  0  0
 18 37  1  0  0  0  0
 19 20  1  0  0  0  0
 19 38  1  0  0  0  0
 19 39  1  0  0  0  0
 20 21  1  0  0  0  0
 20 40  1  0  0  0  0
 20 41  1  0  0  0  0
 21 22  2  0  0  0  0
 22 23  1  0  0  0  0
 22 42  1  0  0  0  0
 23 24  2  0  0  0  0
 24 43  1  0  0  0  0
M  CHG  1  18   1
M  END
> <compound_name>
BEN-DND-c852c98b-10

> <provenance>
{"isomeric_smiles": "c1cc2c(cc1Cl)[C@@H](CCO2)C(=O)Nc3cncc4c3C[NH2+]CC4", "inchi": "InChI=1S/C18H18ClN3O2/c19-12-1-2-17-14(7-12)13(4-6-24-17)18(23)22-16-10-21-8-11-3-5-20-9-15(11)16/h1-2,7-8,10,13,20H,3-6,9H2,(H,22,23)/p+1/t13-/m1/s1", "inchi_key": "MLMSDXNATONIOS-CYBMUJFWSA-O", "fixed_inchi": "InChI=1/C18H18ClN3O2/c19-12-1-2-17-14(7-12)13(4-6-24-17)18(23)22-16-10-21-8-11-3-5-20-9-15(11)16/h1-2,7-8,10,13,20H,3-6,9H2,(H,22,23)/p+1/t13-/m1/s1/fC18H19ClN3O2/h20,22H/q+1", "fixed_inchikey": "MLMSDXNATONIOS-OBQFDTAGNA-O"}

> <data_format>
sdf

$$$$
