LIG(A-306)
  -OEChem-06042511403D

 51 54  0     1  0  0  0  0  0999 V2000
   14.1970   -1.5791   20.9428 Cl  0  0  0  0  0  0  0  0  0  0  0  0
   13.2499   -0.7223   22.1299 C   0  0  0  0  0  0  0  0  0  0  0  0
   13.8838    0.1518   22.9959 C   0  0  0  0  0  0  0  0  0  0  0  0
   13.1297    0.8727   23.9040 C   0  0  0  0  0  0  0  0  0  0  0  0
   11.8770   -0.8995   22.1420 C   0  0  0  0  0  0  0  0  0  0  0  0
   11.1039   -0.1616   23.0360 C   0  0  0  0  0  0  0  0  0  0  0  0
   11.7508    0.7184   23.9110 C   0  0  0  0  0  0  0  0  0  0  0  0
   11.0697    1.4943   24.8141 O   0  0  0  0  0  0  0  0  0  0  0  0
    9.8648    0.8791   25.3031 C   0  0  0  0  0  0  0  0  0  0  0  0
    8.9098    0.5169   24.1811 C   0  0  0  0  0  0  0  0  0  0  0  0
    9.5939   -0.2929   23.0601 C   0  0  2  0  0  0  0  0  0  0  0  0
    9.2071   -1.6660   22.9380 O   0  0  0  0  0  0  0  0  0  0  0  0
    9.3893   -2.4990   24.0860 C   0  0  0  0  0  0  0  0  0  0  0  0
    8.9657    0.3170   21.7691 C   0  0  0  0  0  0  0  0  0  0  0  0
    9.4655    1.2991   21.2331 O   0  0  0  0  0  0  0  0  0  0  0  0
    7.8308   -0.2801   21.3231 N   0  0  0  0  0  0  0  0  0  0  0  0
    7.0787    0.1138   20.1912 C   0  0  0  0  0  0  0  0  0  0  0  0
    7.5037   -0.0811   18.8762 C   0  0  0  0  0  0  0  0  0  0  0  0
    6.8826    0.3958   17.7872 N   0  0  0  0  0  0  0  0  0  0  0  0
    5.7714    1.0976   17.9713 C   0  0  0  0  0  0  0  0  0  0  0  0
    5.1995    1.3675   19.2393 C   0  0  0  0  0  0  0  0  0  0  0  0
    5.8686    0.8555   20.3892 C   0  0  0  0  0  0  0  0  0  0  0  0
    5.2866    1.0944   21.6643 C   0  0  0  0  0  0  0  0  0  0  0  0
    4.1125    1.7802   21.7903 C   0  0  0  0  0  0  0  0  0  0  0  0
    3.9953    2.0863   19.4034 C   0  0  0  0  0  0  0  0  0  0  0  0
    3.4684    2.2591   20.6564 C   0  0  0  0  0  0  0  0  0  0  0  0
    1.8872    3.0259   20.8065 S   0  0  0  0  0  0  0  0  0  0  0  0
    1.5171    3.5428   19.5225 O   0  0  0  0  0  0  0  0  0  0  0  0
    1.0134    2.1077   21.4685 O   0  0  0  0  0  0  0  0  0  0  0  0
    2.0531    4.2959   21.7795 N   0  0  0  0  0  0  0  0  0  0  0  0
    2.8108    5.4550   21.3175 C   0  0  0  0  0  0  0  0  0  0  0  0
   14.9568    0.2698   22.9629 H   0  0  0  0  0  0  0  0  0  0  0  0
   13.6081    1.5470   24.5988 H   0  0  0  0  0  0  0  0  0  0  0  0
   11.4106   -1.6013   21.4664 H   0  0  0  0  0  0  0  0  0  0  0  0
   10.1318   -0.0369   25.8505 H   0  0  0  0  0  0  0  0  0  0  0  0
    9.3608    1.5799   25.9848 H   0  0  0  0  0  0  0  0  0  0  0  0
    8.0874   -0.0830   24.5979 H   0  0  0  0  0  0  0  0  0  0  0  0
    8.5050    1.4443   23.7496 H   0  0  0  0  0  0  0  0  0  0  0  0
    9.0537   -3.5208   23.8552 H   0  0  0  0  0  0  0  0  0  0  0  0
   10.4542   -2.5163   24.3611 H   0  0  0  0  0  0  0  0  0  0  0  0
    8.8003   -2.1005   24.9252 H   0  0  0  0  0  0  0  0  0  0  0  0
    7.4970   -1.0681   21.8404 H   0  0  0  0  0  0  0  0  0  0  0  0
    8.4021   -0.6608   18.7236 H   0  0  0  0  0  0  0  0  0  0  0  0
    5.2706    1.4884   17.0979 H   0  0  0  0  0  0  0  0  0  0  0  0
    5.7827    0.7264   22.5501 H   0  0  0  0  0  0  0  0  0  0  0  0
    3.6862    1.9497   22.7681 H   0  0  0  0  0  0  0  0  0  0  0  0
    3.4904    2.4992   18.5426 H   0  0  0  0  0  0  0  0  0  0  0  0
    2.1153    4.0934   22.7568 H   0  0  0  0  0  0  0  0  0  0  0  0
    2.8222    6.2236   22.1043 H   0  0  0  0  0  0  0  0  0  0  0  0
    3.8426    5.1505   21.0876 H   0  0  0  0  0  0  0  0  0  0  0  0
    2.3389    5.8643   20.4121 H   0  0  0  0  0  0  0  0  0  0  0  0
  1  2  1  0  0  0  0
  2  3  2  0  0  0  0
  2  5  1  0  0  0  0
  3  4  1  0  0  0  0
  3 32  1  0  0  0  0
  4  7  2  0  0  0  0
  4 33  1  0  0  0  0
  5  6  2  0  0  0  0
  5 34  1  0  0  0  0
  6  7  1  0  0  0  0
  6 11  1  0  0  0  0
  7  8  1  0  0  0  0
  8  9  1  0  0  0  0
  9 10  1  0  0  0  0
  9 35  1  0  0  0  0
  9 36  1  0  0  0  0
 10 11  1  0  0  0  0
 10 37  1  0  0  0  0
 10 38  1  0  0  0  0
 11 12  1  0  0  0  0
 11 14  1  0  0  0  0
 12 13  1  0  0  0  0
 13 39  1  0  0  0  0
 13 40  1  0  0  0  0
 13 41  1  0  0  0  0
 14 15  2  0  0  0  0
 14 16  1  0  0  0  0
 16 17  1  0  0  0  0
 16 42  1  0  0  0  0
 17 18  2  0  0  0  0
 17 22  1  0  0  0  0
 18 19  1  0  0  0  0
 18 43  1  0  0  0  0
 19 20  2  0  0  0  0
 20 21  1  0  0  0  0
 20 44  1  0  0  0  0
 21 22  2  0  0  0  0
 21 25  1  0  0  0  0
 22 23  1  0  0  0  0
 23 24  2  0  0  0  0
 23 45  1  0  0  0  0
 24 26  1  0  0  0  0
 24 46  1  0  0  0  0
 25 26  2  0  0  0  0
 25 47  1  0  0  0  0
 26 27  1  0  0  0  0
 27 28  2  0  0  0  0
 27 29  2  0  0  0  0
 27 30  1  0  0  0  0
 30 31  1  0  0  0  0
 30 48  1  0  0  0  0
 31 49  1  0  0  0  0
 31 50  1  0  0  0  0
 31 51  1  0  0  0  0
M  END
> <compound_name>
EDJ-MED-6bf93aa8-1

> <provenance>
{"isomeric_smiles": "CNS(=O)(=O)c1ccc2c(c1)cncc2NC(=O)[C@@]3(CCOc4c3cc(cc4)Cl)OC", "inchi": "InChI=1S/C21H20ClN3O5S/c1-23-31(27,28)15-4-5-16-13(9-15)11-24-12-18(16)25-20(26)21(29-2)7-8-30-19-6-3-14(22)10-17(19)21/h3-6,9-12,23H,7-8H2,1-2H3,(H,25,26)/t21-/m0/s1", "inchi_key": "MJNZSTCPXGKUKK-NRFANRHFSA-N", "fixed_inchi": "InChI=1/C21H20ClN3O5S/c1-23-31(27,28)15-4-5-16-13(9-15)11-24-12-18(16)25-20(26)21(29-2)7-8-30-19-6-3-14(22)10-17(19)21/h3-6,9-12,23H,7-8H2,1-2H3,(H,25,26)/t21-/m0/s1/f/h25H", "fixed_inchikey": "MJNZSTCPXGKUKK-NAUSHLRJNA-N"}

> <data_format>
sdf

$$$$
