LIG(A-305)
  -OEChem-06042511353D

 47 49  0     0  0  0  0  0  0999 V2000
    6.5417    0.9703   16.8767 O   0  0  0  0  0  0  0  0  0  0  0  0
    5.9167    0.7293   17.9127 C   0  0  0  0  0  0  0  0  0  0  0  0
    6.2877   -0.2808   18.8376 C   0  0  0  0  0  0  0  0  0  0  0  0
    4.8569    1.5174   18.2798 N   0  0  0  0  0  0  0  0  0  0  0  0
    4.2069    1.4375   19.5049 C   0  0  0  0  0  0  0  0  0  0  0  0
    4.6419    0.4854   20.4538 C   0  0  0  0  0  0  0  0  0  0  0  0
    4.0560    0.5144   21.7358 C   0  0  0  0  0  0  0  0  0  0  0  0
    4.5789   -0.3687   22.6418 O   0  0  0  0  0  0  0  0  0  0  0  0
    4.0020   -0.4117   23.9458 C   0  0  0  0  0  0  0  0  0  0  0  0
    3.0391    1.4155   22.0269 C   0  0  0  0  0  0  0  0  0  0  0  0
    2.5962    2.2996   21.0590 C   0  0  0  0  0  0  0  0  0  0  0  0
    3.1781    2.3236   19.8050 C   0  0  0  0  0  0  0  0  0  0  0  0
    5.7087   -0.4427   20.0527 C   0  0  0  0  0  0  0  0  0  0  0  0
    6.1236   -1.6238   20.8646 C   0  0  0  0  0  0  0  0  0  0  0  0
    5.4055   -2.6167   20.9576 O   0  0  0  0  0  0  0  0  0  0  0  0
    7.2937   -1.5230   21.4995 N   0  0  0  0  0  0  0  0  0  0  0  0
    7.7237   -2.4861   22.5005 C   0  0  0  0  0  0  0  0  0  0  0  0
    9.2097   -2.4733   22.6913 C   0  0  0  0  0  0  0  0  0  0  0  0
    9.6328   -1.1013   22.7424 O   0  0  0  0  0  0  0  0  0  0  0  0
   10.9779   -0.8295   22.8043 C   0  0  0  0  0  0  0  0  0  0  0  0
   11.3191    0.4154   23.3693 C   0  0  0  0  0  0  0  0  0  0  0  0
   10.2592    1.1776   23.7834 O   0  0  0  0  0  0  0  0  0  0  0  0
   10.5014    2.5505   24.0974 C   0  0  0  0  0  0  0  0  0  0  0  0
   11.9717   -1.6536   22.2962 C   0  0  0  0  0  0  0  0  0  0  0  0
   13.2908   -1.2298   22.3161 C   0  0  0  0  0  0  0  0  0  0  0  0
   13.6270   -0.0088   22.8681 C   0  0  0  0  0  0  0  0  0  0  0  0
   12.6501    0.8123   23.4112 C   0  0  0  0  0  0  0  0  0  0  0  0
    7.0782   -0.9610   18.5570 H   0  0  0  0  0  0  0  0  0  0  0  0
    4.5289    2.1949   17.6186 H   0  0  0  0  0  0  0  0  0  0  0  0
    4.5255   -1.1639   24.5542 H   0  0  0  0  0  0  0  0  0  0  0  0
    4.0974    0.5755   24.4215 H   0  0  0  0  0  0  0  0  0  0  0  0
    2.9381   -0.6796   23.8673 H   0  0  0  0  0  0  0  0  0  0  0  0
    2.5936    1.4259   23.0107 H   0  0  0  0  0  0  0  0  0  0  0  0
    1.7872    2.9783   21.2855 H   0  0  0  0  0  0  0  0  0  0  0  0
    2.8349    3.0278   19.0614 H   0  0  0  0  0  0  0  0  0  0  0  0
    7.8969   -0.7567   21.2785 H   0  0  0  0  0  0  0  0  0  0  0  0
    7.2407   -2.2423   23.4582 H   0  0  0  0  0  0  0  0  0  0  0  0
    7.4156   -3.4923   22.1801 H   0  0  0  0  0  0  0  0  0  0  0  0
    9.4708   -2.9808   23.6317 H   0  0  0  0  0  0  0  0  0  0  0  0
    9.6996   -2.9852   21.8500 H   0  0  0  0  0  0  0  0  0  0  0  0
    9.5610    3.0266   24.4120 H   0  0  0  0  0  0  0  0  0  0  0  0
   11.2362    2.6158   24.9135 H   0  0  0  0  0  0  0  0  0  0  0  0
   10.8939    3.0661   23.2085 H   0  0  0  0  0  0  0  0  0  0  0  0
   11.7185   -2.6206   21.8872 H   0  0  0  0  0  0  0  0  0  0  0  0
   14.0621   -1.8589   21.8968 H   0  0  0  0  0  0  0  0  0  0  0  0
   14.6591    0.3089   22.8769 H   0  0  0  0  0  0  0  0  0  0  0  0
   12.9223    1.7543   23.8639 H   0  0  0  0  0  0  0  0  0  0  0  0
  1  2  2  0  0  0  0
  2  3  1  0  0  0  0
  2  4  1  0  0  0  0
  3 13  2  0  0  0  0
  3 28  1  0  0  0  0
  4  5  1  0  0  0  0
  4 29  1  0  0  0  0
  5  6  2  0  0  0  0
  5 12  1  0  0  0  0
  6  7  1  0  0  0  0
  6 13  1  0  0  0  0
  7  8  1  0  0  0  0
  7 10  2  0  0  0  0
  8  9  1  0  0  0  0
  9 30  1  0  0  0  0
  9 31  1  0  0  0  0
  9 32  1  0  0  0  0
 10 11  1  0  0  0  0
 10 33  1  0  0  0  0
 11 12  2  0  0  0  0
 11 34  1  0  0  0  0
 12 35  1  0  0  0  0
 13 14  1  0  0  0  0
 14 15  2  0  0  0  0
 14 16  1  0  0  0  0
 16 17  1  0  0  0  0
 16 36  1  0  0  0  0
 17 18  1  0  0  0  0
 17 37  1  0  0  0  0
 17 38  1  0  0  0  0
 18 19  1  0  0  0  0
 18 39  1  0  0  0  0
 18 40  1  0  0  0  0
 19 20  1  0  0  0  0
 20 21  2  0  0  0  0
 20 24  1  0  0  0  0
 21 22  1  0  0  0  0
 21 27  1  0  0  0  0
 22 23  1  0  0  0  0
 23 41  1  0  0  0  0
 23 42  1  0  0  0  0
 23 43  1  0  0  0  0
 24 25  2  0  0  0  0
 24 44  1  0  0  0  0
 25 26  1  0  0  0  0
 25 45  1  0  0  0  0
 26 27  2  0  0  0  0
 26 46  1  0  0  0  0
 27 47  1  0  0  0  0
M  END
> <compound_name>
EDJ-MED-6af13d92-3

> <provenance>
{"isomeric_smiles": "COc1ccccc1OCCNC(=O)c2cc(=O)[nH]c3c2c(ccc3)OC", "inchi": "InChI=1S/C20H20N2O5/c1-25-15-7-3-4-8-16(15)27-11-10-21-20(24)13-12-18(23)22-14-6-5-9-17(26-2)19(13)14/h3-9,12H,10-11H2,1-2H3,(H,21,24)(H,22,23)", "inchi_key": "NXFNSWGPJUOQPY-UHFFFAOYSA-N", "fixed_inchi": "InChI=1/C20H20N2O5/c1-25-15-7-3-4-8-16(15)27-11-10-21-20(24)13-12-18(23)22-14-6-5-9-17(26-2)19(13)14/h3-9,12H,10-11H2,1-2H3,(H,21,24)(H,22,23)/f/h21-22H", "fixed_inchikey": "NXFNSWGPJUOQPY-XBTAAFKLNA-N"}

> <data_format>
sdf

$$$$
