LIG(A-305)
  -OEChem-06042511353D

 39 40  0     0  0  0  0  0  0999 V2000
    3.0575    2.2676   23.3778 C   0  0  0  0  0  0  0  0  0  0  0  0
    5.3324    1.5044   22.5706 C   0  0  0  0  0  0  0  0  0  0  0  0
    5.0022    0.2724   21.7316 C   0  0  0  0  0  0  0  0  0  0  0  0
    5.4300    0.3894   20.2696 C   0  0  0  0  0  0  0  0  0  0  0  0
    6.4979   -0.3827   19.8094 C   0  0  0  0  0  0  0  0  0  0  0  0
    6.8808   -0.2677   18.4794 C   0  0  0  0  0  0  0  0  0  0  0  0
    5.2138    1.2834   18.0756 C   0  0  0  0  0  0  0  0  0  0  0  0
    4.7610    1.2464   19.3906 C   0  0  0  0  0  0  0  0  0  0  0  0
    0.7827    3.2578   23.9791 C   0  0  0  0  0  0  0  0  0  0  0  0
    0.6778    4.6978   24.4891 C   0  0  0  0  0  0  0  0  0  0  0  0
   -0.6441    4.9519   25.1972 C   0  0  0  0  0  0  0  0  0  0  0  0
   -1.8132    4.6420   24.2723 C   0  0  0  0  0  0  0  0  0  0  0  0
   -1.7614    3.2100   23.7544 C   0  0  0  0  0  0  0  0  0  0  0  0
   -0.4105    2.8529   23.1262 C   0  0  0  0  0  0  0  0  0  0  0  0
    4.2014    2.4025   22.4907 N   0  0  0  0  0  0  0  0  0  0  0  0
    6.2457    0.5443   17.6655 N   0  0  0  0  0  0  0  0  0  0  0  0
    1.9806    3.2157   23.1679 N   0  0  0  0  0  0  0  0  0  0  0  0
    3.0176    1.4236   24.2228 O   0  0  0  0  0  0  0  0  0  0  0  0
    5.5054    1.2109   23.6164 H   0  0  0  0  0  0  0  0  0  0  0  0
    6.2322    1.9980   22.1746 H   0  0  0  0  0  0  0  0  0  0  0  0
    5.5130   -0.5955   22.1741 H   0  0  0  0  0  0  0  0  0  0  0  0
    3.9143    0.1129   21.7629 H   0  0  0  0  0  0  0  0  0  0  0  0
    7.0166   -1.0567   20.4751 H   0  0  0  0  0  0  0  0  0  0  0  0
    7.7101   -0.8527   18.1101 H   0  0  0  0  0  0  0  0  0  0  0  0
    4.7159    1.9286   17.3669 H   0  0  0  0  0  0  0  0  0  0  0  0
    3.9295    1.8529   19.7179 H   0  0  0  0  0  0  0  0  0  0  0  0
    0.8716    2.5729   24.8352 H   0  0  0  0  0  0  0  0  0  0  0  0
    1.5011    4.8868   25.1937 H   0  0  0  0  0  0  0  0  0  0  0  0
    0.7617    5.3851   23.6343 H   0  0  0  0  0  0  0  0  0  0  0  0
   -0.7069    4.3093   26.0878 H   0  0  0  0  0  0  0  0  0  0  0  0
   -0.6940    6.0075   25.5024 H   0  0  0  0  0  0  0  0  0  0  0  0
   -2.7528    4.7866   24.8257 H   0  0  0  0  0  0  0  0  0  0  0  0
   -1.7821    5.3317   23.4159 H   0  0  0  0  0  0  0  0  0  0  0  0
   -1.9498    2.5255   24.5946 H   0  0  0  0  0  0  0  0  0  0  0  0
   -2.5466    3.0827   22.9946 H   0  0  0  0  0  0  0  0  0  0  0  0
   -0.3750    1.7642   22.9727 H   0  0  0  0  0  0  0  0  0  0  0  0
   -0.3328    3.3629   22.1547 H   0  0  0  0  0  0  0  0  0  0  0  0
    4.2064    3.1339   21.8088 H   0  0  0  0  0  0  0  0  0  0  0  0
    2.0704    3.8761   22.4224 H   0  0  0  0  0  0  0  0  0  0  0  0
  1 15  1  0  0  0  0
  1 17  1  0  0  0  0
  1 18  2  0  0  0  0
  2  3  1  0  0  0  0
  2 15  1  0  0  0  0
  2 19  1  0  0  0  0
  2 20  1  0  0  0  0
  3  4  1  0  0  0  0
  3 21  1  0  0  0  0
  3 22  1  0  0  0  0
  4  5  2  0  0  0  0
  4  8  1  0  0  0  0
  5  6  1  0  0  0  0
  5 23  1  0  0  0  0
  6 16  2  0  0  0  0
  6 24  1  0  0  0  0
  7  8  2  0  0  0  0
  7 16  1  0  0  0  0
  7 25  1  0  0  0  0
  8 26  1  0  0  0  0
  9 10  1  0  0  0  0
  9 14  1  0  0  0  0
  9 17  1  0  0  0  0
  9 27  1  0  0  0  0
 10 11  1  0  0  0  0
 10 28  1  0  0  0  0
 10 29  1  0  0  0  0
 11 12  1  0  0  0  0
 11 30  1  0  0  0  0
 11 31  1  0  0  0  0
 12 13  1  0  0  0  0
 12 32  1  0  0  0  0
 12 33  1  0  0  0  0
 13 14  1  0  0  0  0
 13 34  1  0  0  0  0
 13 35  1  0  0  0  0
 14 36  1  0  0  0  0
 14 37  1  0  0  0  0
 15 38  1  0  0  0  0
 17 39  1  0  0  0  0
M  END
> <compound_name>
AAR-POS-d2a4d1df-12

> <provenance>
{"isomeric_smiles": "c1cnccc1CCNC(=O)NC2CCCCC2", "inchi": "InChI=1S/C14H21N3O/c18-14(17-13-4-2-1-3-5-13)16-11-8-12-6-9-15-10-7-12/h6-7,9-10,13H,1-5,8,11H2,(H2,16,17,18)", "inchi_key": "XUPGANVQJLTRNJ-UHFFFAOYSA-N", "fixed_inchi": "InChI=1/C14H21N3O/c18-14(17-13-4-2-1-3-5-13)16-11-8-12-6-9-15-10-7-12/h6-7,9-10,13H,1-5,8,11H2,(H2,16,17,18)/f/h16-17H", "fixed_inchikey": "XUPGANVQJLTRNJ-XQMQJMAZNA-N"}

> <data_format>
sdf

$$$$
