LIG(A-305)
  -OEChem-06042511363D

 31 33  0     0  0  0  0  0  0999 V2000
    8.6804    0.7482   21.2938 O   0  0  0  0  0  0  0  0  0  0  0  0
    8.3144   -0.4048   21.4948 C   0  0  0  0  0  0  0  0  0  0  0  0
    8.8524   -1.2159   22.6568 C   0  0  0  0  0  0  0  0  0  0  0  0
   10.2674   -0.8139   23.0008 C   0  0  0  0  0  0  0  0  0  0  0  0
   10.5294    0.0661   24.0428 C   0  0  0  0  0  0  0  0  0  0  0  0
   11.8224    0.4791   24.3109 C   0  0  0  0  0  0  0  0  0  0  0  0
   12.8804    0.0081   23.5449 C   0  0  0  0  0  0  0  0  0  0  0  0
   11.3294   -1.3039   22.2488 C   0  0  0  0  0  0  0  0  0  0  0  0
   12.6154   -0.9019   22.5418 C   0  0  0  0  0  0  0  0  0  0  0  0
   13.9394   -1.6318   21.6818 Cl  0  0  0  0  0  0  0  0  0  0  0  0
    7.4254   -1.0508   20.7178 N   0  0  0  0  0  0  0  0  0  0  0  0
    6.7885   -0.4548   19.6448 N   0  0  0  0  0  0  0  0  0  0  0  0
    5.6705    0.2482   19.7378 C   0  0  0  0  0  0  0  0  0  0  0  0
    5.5295    0.7713   18.4548 C   0  0  0  0  0  0  0  0  0  0  0  0
    6.5725    0.3193   17.6718 N   0  0  0  0  0  0  0  0  0  0  0  0
    7.3305   -0.4447   18.3968 N   0  0  0  0  0  0  0  0  0  0  0  0
    4.7584    0.5272   20.7458 C   0  0  0  0  0  0  0  0  0  0  0  0
    3.6994    1.3712   20.4498 C   0  0  0  0  0  0  0  0  0  0  0  0
    3.5465    1.9043   19.1708 C   0  0  0  0  0  0  0  0  0  0  0  0
    4.4575    1.6083   18.1608 C   0  0  0  0  0  0  0  0  0  0  0  0
    8.2104   -1.0526   23.5349 H   0  0  0  0  0  0  0  0  0  0  0  0
    8.8390   -2.2819   22.3858 H   0  0  0  0  0  0  0  0  0  0  0  0
    9.7150    0.4319   24.6505 H   0  0  0  0  0  0  0  0  0  0  0  0
   12.0095    1.1705   25.1191 H   0  0  0  0  0  0  0  0  0  0  0  0
   13.8891    0.3467   23.7301 H   0  0  0  0  0  0  0  0  0  0  0  0
   11.1480   -1.9956   21.4395 H   0  0  0  0  0  0  0  0  0  0  0  0
    7.2158   -2.0061   20.9260 H   0  0  0  0  0  0  0  0  0  0  0  0
    4.8703    0.0996   21.7312 H   0  0  0  0  0  0  0  0  0  0  0  0
    2.9838    1.6190   21.2198 H   0  0  0  0  0  0  0  0  0  0  0  0
    2.7106    2.5551   18.9609 H   0  0  0  0  0  0  0  0  0  0  0  0
    4.3348    2.0197   17.1698 H   0  0  0  0  0  0  0  0  0  0  0  0
  1  2  2  0  0  0  0
  2  3  1  0  0  0  0
  2 11  1  0  0  0  0
  3  4  1  0  0  0  0
  3 21  1  0  0  0  0
  3 22  1  0  0  0  0
  4  5  2  0  0  0  0
  4  8  1  0  0  0  0
  5  6  1  0  0  0  0
  5 23  1  0  0  0  0
  6  7  2  0  0  0  0
  6 24  1  0  0  0  0
  7  9  1  0  0  0  0
  7 25  1  0  0  0  0
  8  9  2  0  0  0  0
  8 26  1  0  0  0  0
  9 10  1  0  0  0  0
 11 12  1  0  0  0  0
 11 27  1  0  0  0  0
 12 13  1  0  0  0  0
 12 16  1  0  0  0  0
 13 14  2  0  0  0  0
 13 17  1  0  0  0  0
 14 15  1  0  0  0  0
 14 20  1  0  0  0  0
 15 16  2  0  0  0  0
 17 18  2  0  0  0  0
 17 28  1  0  0  0  0
 18 19  1  0  0  0  0
 18 29  1  0  0  0  0
 19 20  2  0  0  0  0
 19 30  1  0  0  0  0
 20 31  1  0  0  0  0
M  END
> <compound_name>
MAT-POS-bfb445d4-2

> <provenance>
{"isomeric_smiles": "c1ccc2c(c1)nnn2NC(=O)Cc3cccc(c3)Cl", "inchi": "InChI=1S/C14H11ClN4O/c15-11-5-3-4-10(8-11)9-14(20)17-19-13-7-2-1-6-12(13)16-18-19/h1-8H,9H2,(H,17,20)", "inchi_key": "OYXJREXTFZDGLT-UHFFFAOYSA-N", "fixed_inchi": "InChI=1/C14H11ClN4O/c15-11-5-3-4-10(8-11)9-14(20)17-19-13-7-2-1-6-12(13)16-18-19/h1-8H,9H2,(H,17,20)/f/h17H", "fixed_inchikey": "OYXJREXTFZDGLT-HCKMINDGNA-N"}

> <data_format>
sdf

$$$$
