LIG(A-306)
  -OEChem-06042511383D

 39 42  0     1  0  0  0  0  0999 V2000
   14.1411   -1.5821   21.1674 Cl  0  0  0  0  0  0  0  0  0  0  0  0
   13.0761   -0.6944   22.2229 C   0  0  0  0  0  0  0  0  0  0  0  0
   13.5989    0.2860   23.0388 C   0  0  0  0  0  0  0  0  0  0  0  0
   12.7426    1.0573   23.8044 C   0  0  0  0  0  0  0  0  0  0  0  0
   11.7200   -0.9435   22.1647 C   0  0  0  0  0  0  0  0  0  0  0  0
   10.8408   -0.1693   22.9203 C   0  0  0  0  0  0  0  0  0  0  0  0
   11.3776    0.8271   23.7451 C   0  0  0  0  0  0  0  0  0  0  0  0
   10.6144    1.5975   24.5916 O   0  0  0  0  0  0  0  0  0  0  0  0
    9.1832    1.5472   24.4051 C   0  0  0  0  0  0  0  0  0  0  0  0
    8.6950    0.1467   24.1339 C   0  0  0  0  0  0  0  0  0  0  0  0
    9.3407   -0.3844   22.8451 C   0  0  1  0  0  0  0  0  0  0  0  0
    8.8005    0.3285   21.6025 C   0  0  0  0  0  0  0  0  0  0  0  0
    9.4908    1.0944   20.9385 O   0  0  0  0  0  0  0  0  0  0  0  0
    7.4832    0.1260   21.3621 N   0  0  0  0  0  0  0  0  0  0  0  0
    6.7490    0.2610   20.1686 C   0  0  0  0  0  0  0  0  0  0  0  0
    7.2677    0.1229   18.8794 C   0  0  0  0  0  0  0  0  0  0  0  0
    6.6726    0.5310   17.7523 N   0  0  0  0  0  0  0  0  0  0  0  0
    5.5057    1.1411   17.8664 C   0  0  0  0  0  0  0  0  0  0  0  0
    5.4691    0.8882   20.2839 C   0  0  0  0  0  0  0  0  0  0  0  0
    4.8344    1.1282   21.5301 C   0  0  0  0  0  0  0  0  0  0  0  0
    3.6764    1.8332   21.5511 C   0  0  0  0  0  0  0  0  0  0  0  0
    3.0355    1.9852   22.7425 F   0  0  0  0  0  0  0  0  0  0  0  0
    4.8509    1.3732   19.0977 C   0  0  0  0  0  0  0  0  0  0  0  0
    3.6530    2.1183   19.2066 C   0  0  0  0  0  0  0  0  0  0  0  0
    3.0842    2.3503   20.4238 C   0  0  0  0  0  0  0  0  0  0  0  0
   14.6655    0.4503   23.0800 H   0  0  0  0  0  0  0  0  0  0  0  0
   13.1356    1.8336   24.4440 H   0  0  0  0  0  0  0  0  0  0  0  0
   11.3412   -1.7357   21.5359 H   0  0  0  0  0  0  0  0  0  0  0  0
    8.6935    1.9234   25.3155 H   0  0  0  0  0  0  0  0  0  0  0  0
    8.9139    2.1878   23.5525 H   0  0  0  0  0  0  0  0  0  0  0  0
    8.9686   -0.5058   24.9761 H   0  0  0  0  0  0  0  0  0  0  0  0
    7.6012    0.1565   24.0181 H   0  0  0  0  0  0  0  0  0  0  0  0
    9.1336   -1.4613   22.7591 H   0  0  0  0  0  0  0  0  0  0  0  0
    6.9489   -0.1646   22.1560 H   0  0  0  0  0  0  0  0  0  0  0  0
    8.2319   -0.3542   18.7837 H   0  0  0  0  0  0  0  0  0  0  0  0
    5.0226    1.4836   16.9632 H   0  0  0  0  0  0  0  0  0  0  0  0
    5.2666    0.7555   22.4470 H   0  0  0  0  0  0  0  0  0  0  0  0
    3.1838    2.5078   18.3152 H   0  0  0  0  0  0  0  0  0  0  0  0
    2.1787    2.9338   20.5012 H   0  0  0  0  0  0  0  0  0  0  0  0
  1  2  1  0  0  0  0
  2  3  2  0  0  0  0
  2  5  1  0  0  0  0
  3  4  1  0  0  0  0
  3 26  1  0  0  0  0
  4  7  2  0  0  0  0
  4 27  1  0  0  0  0
  5  6  2  0  0  0  0
  5 28  1  0  0  0  0
  6  7  1  0  0  0  0
  6 11  1  0  0  0  0
  7  8  1  0  0  0  0
  8  9  1  0  0  0  0
  9 10  1  0  0  0  0
  9 29  1  0  0  0  0
  9 30  1  0  0  0  0
 10 11  1  0  0  0  0
 10 31  1  0  0  0  0
 10 32  1  0  0  0  0
 11 12  1  0  0  0  0
 11 33  1  0  0  0  0
 12 13  2  0  0  0  0
 12 14  1  0  0  0  0
 14 15  1  0  0  0  0
 14 34  1  0  0  0  0
 15 16  2  0  0  0  0
 15 19  1  0  0  0  0
 16 17  1  0  0  0  0
 16 35  1  0  0  0  0
 17 18  2  0  0  0  0
 18 23  1  0  0  0  0
 18 36  1  0  0  0  0
 19 20  2  0  0  0  0
 19 23  1  0  0  0  0
 20 21  1  0  0  0  0
 20 37  1  0  0  0  0
 21 22  1  0  0  0  0
 21 25  2  0  0  0  0
 23 24  2  0  0  0  0
 24 25  1  0  0  0  0
 24 38  1  0  0  0  0
 25 39  1  0  0  0  0
M  END
> <compound_name>
EDG-MED-5d232de5-1

> <provenance>
{"isomeric_smiles": "c1cc2cncc(c2cc1F)NC(=O)[C@@H]3CCOc4c3cc(cc4)Cl", "inchi": "InChI=1S/C19H14ClFN2O2/c20-12-2-4-18-16(7-12)14(5-6-25-18)19(24)23-17-10-22-9-11-1-3-13(21)8-15(11)17/h1-4,7-10,14H,5-6H2,(H,23,24)/t14-/m1/s1", "inchi_key": "YVSNGUCAHVBFFA-CQSZACIVSA-N", "fixed_inchi": "InChI=1/C19H14ClFN2O2/c20-12-2-4-18-16(7-12)14(5-6-25-18)19(24)23-17-10-22-9-11-1-3-13(21)8-15(11)17/h1-4,7-10,14H,5-6H2,(H,23,24)/t14-/m1/s1/f/h23H", "fixed_inchikey": "YVSNGUCAHVBFFA-NFBKTVIUNA-N"}

> <data_format>
sdf

$$$$
