LIG(A-306)
  -OEChem-06042511413D

 41 43  0     0  0  0  0  0  0999 V2000
   14.1100   -1.5217   21.4554 Cl  0  0  0  0  0  0  0  0  0  0  0  0
   12.8524   -0.8362   22.4479 C   0  0  0  0  0  0  0  0  0  0  0  0
   13.1755    0.1496   23.3589 C   0  0  0  0  0  0  0  0  0  0  0  0
   12.1567    0.7320   24.0949 C   0  0  0  0  0  0  0  0  0  0  0  0
   10.8389    0.3456   23.8920 C   0  0  0  0  0  0  0  0  0  0  0  0
   11.5496   -1.2526   22.2569 C   0  0  0  0  0  0  0  0  0  0  0  0
   10.5199   -0.6371   22.9630 C   0  0  0  0  0  0  0  0  0  0  0  0
    9.0792   -0.9736   22.6514 C   0  0  0  0  0  0  0  0  0  0  0  0
    8.4868   -0.1059   21.5588 C   0  0  0  0  0  0  0  0  0  0  0  0
    9.0110    0.9558   21.2111 O   0  0  0  0  0  0  0  0  0  0  0  0
    7.3568   -0.5988   21.0064 N   0  0  0  0  0  0  0  0  0  0  0  0
    6.6288   -0.0759   19.9210 C   0  0  0  0  0  0  0  0  0  0  0  0
    7.0325   -0.2020   18.5904 C   0  0  0  0  0  0  0  0  0  0  0  0
    6.4306    0.3864   17.5483 N   0  0  0  0  0  0  0  0  0  0  0  0
    5.3761    1.1503   17.8012 C   0  0  0  0  0  0  0  0  0  0  0  0
    5.4704    0.7211   20.1911 C   0  0  0  0  0  0  0  0  0  0  0  0
    4.8377    1.3649   19.0944 C   0  0  0  0  0  0  0  0  0  0  0  0
    3.6893    2.1570   19.3334 C   0  0  0  0  0  0  0  0  0  0  0  0
    3.1776    2.2837   20.5891 C   0  0  0  0  0  0  0  0  0  0  0  0
    4.9068    0.8777   21.4839 C   0  0  0  0  0  0  0  0  0  0  0  0
    3.7703    1.6311   21.6758 C   0  0  0  0  0  0  0  0  0  0  0  0
    3.1195    1.6816   23.0221 C   0  0  0  0  0  0  0  0  0  0  0  0
    3.7500    1.4052   24.0387 O   0  0  0  0  0  0  0  0  0  0  0  0
    1.8181    1.9671   23.0526 N   0  0  0  0  0  0  0  0  0  0  0  0
    0.9845    1.6280   24.1899 C   0  0  0  0  0  0  0  0  0  0  0  0
   14.2009    0.4602   23.4948 H   0  0  0  0  0  0  0  0  0  0  0  0
   12.3885    1.4893   24.8292 H   0  0  0  0  0  0  0  0  0  0  0  0
   10.0517    0.8149   24.4634 H   0  0  0  0  0  0  0  0  0  0  0  0
   11.3308   -2.0513   21.5636 H   0  0  0  0  0  0  0  0  0  0  0  0
    9.0270   -2.0244   22.3303 H   0  0  0  0  0  0  0  0  0  0  0  0
    8.4830   -0.8397   23.5661 H   0  0  0  0  0  0  0  0  0  0  0  0
    6.9943   -1.4351   21.4176 H   0  0  0  0  0  0  0  0  0  0  0  0
    7.8942   -0.8201   18.3860 H   0  0  0  0  0  0  0  0  0  0  0  0
    4.8966    1.6408   16.9671 H   0  0  0  0  0  0  0  0  0  0  0  0
    3.2127    2.6674   18.5095 H   0  0  0  0  0  0  0  0  0  0  0  0
    2.3024    2.8962   20.7484 H   0  0  0  0  0  0  0  0  0  0  0  0
    5.3764    0.3987   22.3303 H   0  0  0  0  0  0  0  0  0  0  0  0
    1.4041    2.4288   22.2680 H   0  0  0  0  0  0  0  0  0  0  0  0
   -0.0482    1.9551   23.9987 H   0  0  0  0  0  0  0  0  0  0  0  0
    1.0013    0.5392   24.3451 H   0  0  0  0  0  0  0  0  0  0  0  0
    1.3683    2.1324   25.0890 H   0  0  0  0  0  0  0  0  0  0  0  0
  1  2  1  0  0  0  0
  2  3  2  0  0  0  0
  2  6  1  0  0  0  0
  3  4  1  0  0  0  0
  3 26  1  0  0  0  0
  4  5  2  0  0  0  0
  4 27  1  0  0  0  0
  5  7  1  0  0  0  0
  5 28  1  0  0  0  0
  6  7  2  0  0  0  0
  6 29  1  0  0  0  0
  7  8  1  0  0  0  0
  8  9  1  0  0  0  0
  8 30  1  0  0  0  0
  8 31  1  0  0  0  0
  9 10  2  0  0  0  0
  9 11  1  0  0  0  0
 11 12  1  0  0  0  0
 11 32  1  0  0  0  0
 12 13  2  0  0  0  0
 12 16  1  0  0  0  0
 13 14  1  0  0  0  0
 13 33  1  0  0  0  0
 14 15  2  0  0  0  0
 15 17  1  0  0  0  0
 15 34  1  0  0  0  0
 16 17  2  0  0  0  0
 16 20  1  0  0  0  0
 17 18  1  0  0  0  0
 18 19  2  0  0  0  0
 18 35  1  0  0  0  0
 19 21  1  0  0  0  0
 19 36  1  0  0  0  0
 20 21  2  0  0  0  0
 20 37  1  0  0  0  0
 21 22  1  0  0  0  0
 22 23  2  0  0  0  0
 22 24  1  0  0  0  0
 24 25  1  0  0  0  0
 24 38  1  0  0  0  0
 25 39  1  0  0  0  0
 25 40  1  0  0  0  0
 25 41  1  0  0  0  0
M  END
> <compound_name>
MAT-POS-90fd5f68-20

> <provenance>
{"isomeric_smiles": "CNC(=O)c1ccc2cncc(c2c1)NC(=O)Cc3cccc(c3)Cl", "inchi": "InChI=1S/C19H16ClN3O2/c1-21-19(25)13-5-6-14-10-22-11-17(16(14)9-13)23-18(24)8-12-3-2-4-15(20)7-12/h2-7,9-11H,8H2,1H3,(H,21,25)(H,23,24)", "inchi_key": "MQGFIRADDQPUFN-UHFFFAOYSA-N", "fixed_inchi": "InChI=1/C19H16ClN3O2/c1-21-19(25)13-5-6-14-10-22-11-17(16(14)9-13)23-18(24)8-12-3-2-4-15(20)7-12/h2-7,9-11H,8H2,1H3,(H,21,25)(H,23,24)/f/h21,23H", "fixed_inchikey": "MQGFIRADDQPUFN-NPQUBYNZNA-N"}

> <data_format>
sdf

$$$$
