LIG(A-305)
  -OEChem-06042511363D

 33 35  0     0  0  0  0  0  0999 V2000
    8.8072    1.0980   21.3646 O   0  0  0  0  0  0  0  0  0  0  0  0
    8.5174   -0.0911   21.3727 C   0  0  0  0  0  0  0  0  0  0  0  0
    9.0594   -1.0349   22.4298 C   0  0  0  0  0  0  0  0  0  0  0  0
   10.5214   -0.7787   22.7219 C   0  0  0  0  0  0  0  0  0  0  0  0
   10.9071    0.1525   23.6789 C   0  0  0  0  0  0  0  0  0  0  0  0
   12.2431    0.4867   23.8470 C   0  0  0  0  0  0  0  0  0  0  0  0
   13.2172   -0.1212   23.0691 C   0  0  0  0  0  0  0  0  0  0  0  0
   11.5035   -1.4056   21.9641 C   0  0  0  0  0  0  0  0  0  0  0  0
   12.8295   -1.0653   22.1442 C   0  0  0  0  0  0  0  0  0  0  0  0
   14.0377   -1.8412   21.1583 Cl  0  0  0  0  0  0  0  0  0  0  0  0
    7.8035   -0.6833   20.3997 N   0  0  0  0  0  0  0  0  0  0  0  0
    6.7575   -0.2105   19.5876 C   0  0  0  0  0  0  0  0  0  0  0  0
    5.6884    0.5974   20.1054 C   0  0  0  0  0  0  0  0  0  0  0  0
    5.2372    0.6634   21.4484 C   0  0  0  0  0  0  0  0  0  0  0  0
    4.1281    1.2763   21.8612 N   0  0  0  0  0  0  0  0  0  0  0  0
    3.3861    1.9051   20.9431 C   0  0  0  0  0  0  0  0  0  0  0  0
    3.7052    1.9640   19.6261 C   0  0  0  0  0  0  0  0  0  0  0  0
    4.8713    1.2992   19.1673 C   0  0  0  0  0  0  0  0  0  0  0  0
    5.1945    1.1861   17.7923 C   0  0  0  0  0  0  0  0  0  0  0  0
    6.1746    0.4342   17.3185 N   0  0  0  0  0  0  0  0  0  0  0  0
    6.9057   -0.2546   18.2016 C   0  0  0  0  0  0  0  0  0  0  0  0
    8.4828   -0.8989   23.3567 H   0  0  0  0  0  0  0  0  0  0  0  0
    8.9442   -2.0697   22.0748 H   0  0  0  0  0  0  0  0  0  0  0  0
   10.1578    0.6216   24.2992 H   0  0  0  0  0  0  0  0  0  0  0  0
   12.5253    1.2223   24.5857 H   0  0  0  0  0  0  0  0  0  0  0  0
   14.2585    0.1404   23.1862 H   0  0  0  0  0  0  0  0  0  0  0  0
   11.2305   -2.1561   21.2370 H   0  0  0  0  0  0  0  0  0  0  0  0
    8.0636   -1.6321   20.2210 H   0  0  0  0  0  0  0  0  0  0  0  0
    5.8427    0.1768   22.1987 H   0  0  0  0  0  0  0  0  0  0  0  0
    2.4802    2.3944   21.2694 H   0  0  0  0  0  0  0  0  0  0  0  0
    3.0795    2.5101   18.9356 H   0  0  0  0  0  0  0  0  0  0  0  0
    4.6029    1.7497   17.0860 H   0  0  0  0  0  0  0  0  0  0  0  0
    7.6767   -0.9002   17.8077 H   0  0  0  0  0  0  0  0  0  0  0  0
  1  2  2  0  0  0  0
  2  3  1  0  0  0  0
  2 11  1  0  0  0  0
  3  4  1  0  0  0  0
  3 22  1  0  0  0  0
  3 23  1  0  0  0  0
  4  5  2  0  0  0  0
  4  8  1  0  0  0  0
  5  6  1  0  0  0  0
  5 24  1  0  0  0  0
  6  7  2  0  0  0  0
  6 25  1  0  0  0  0
  7  9  1  0  0  0  0
  7 26  1  0  0  0  0
  8  9  2  0  0  0  0
  8 27  1  0  0  0  0
  9 10  1  0  0  0  0
 11 12  1  0  0  0  0
 11 28  1  0  0  0  0
 12 13  2  0  0  0  0
 12 21  1  0  0  0  0
 13 14  1  0  0  0  0
 13 18  1  0  0  0  0
 14 15  2  0  0  0  0
 14 29  1  0  0  0  0
 15 16  1  0  0  0  0
 16 17  2  0  0  0  0
 16 30  1  0  0  0  0
 17 18  1  0  0  0  0
 17 31  1  0  0  0  0
 18 19  2  0  0  0  0
 19 20  1  0  0  0  0
 19 32  1  0  0  0  0
 20 21  2  0  0  0  0
 21 33  1  0  0  0  0
M  END
> <compound_name>
MAT-POS-f7918075-5

> <provenance>
{"isomeric_smiles": "c1cc(cc(c1)Cl)CC(=O)Nc2cncc3c2cncc3", "inchi": "InChI=1S/C16H12ClN3O/c17-13-3-1-2-11(6-13)7-16(21)20-15-10-19-8-12-4-5-18-9-14(12)15/h1-6,8-10H,7H2,(H,20,21)", "inchi_key": "VQNYZMIKTVJRNS-UHFFFAOYSA-N", "fixed_inchi": "InChI=1/C16H12ClN3O/c17-13-3-1-2-11(6-13)7-16(21)20-15-10-19-8-12-4-5-18-9-14(12)15/h1-6,8-10H,7H2,(H,20,21)/f/h20H", "fixed_inchikey": "VQNYZMIKTVJRNS-UYBDAZJANA-N"}

> <data_format>
sdf

$$$$
