LIG(A-306)
  -OEChem-06042511403D

 55 59  0     1  0  0  0  0  0999 V2000
    8.9661    0.9937   21.3668 O   0  0  0  0  0  0  0  0  0  0  0  0
    8.4478   -0.0767   21.6786 C   0  0  0  0  0  0  0  0  0  0  0  0
    7.3725   -0.5962   21.0353 N   0  0  0  0  0  0  0  0  0  0  0  0
    6.6684   -0.0521   19.9332 C   0  0  0  0  0  0  0  0  0  0  0  0
    5.5052    0.7452   20.1795 C   0  0  0  0  0  0  0  0  0  0  0  0
    4.9460    0.9461   21.4677 C   0  0  0  0  0  0  0  0  0  0  0  0
    3.8388    1.7247   21.6389 C   0  0  0  0  0  0  0  0  0  0  0  0
    3.2379    2.3514   20.5532 C   0  0  0  0  0  0  0  0  0  0  0  0
    3.7281    2.1746   19.2901 C   0  0  0  0  0  0  0  0  0  0  0  0
    4.8642    1.3602   19.0667 C   0  0  0  0  0  0  0  0  0  0  0  0
    5.3983    1.1134   17.7783 C   0  0  0  0  0  0  0  0  0  0  0  0
    6.4616    0.3542   17.5452 N   0  0  0  0  0  0  0  0  0  0  0  0
    7.0677   -0.2004   18.6033 C   0  0  0  0  0  0  0  0  0  0  0  0
    8.9494   -0.9078   22.8623 C   0  0  1  0  0  0  0  0  0  0  0  0
   10.4181   -0.6032   23.1084 C   0  0  0  0  0  0  0  0  0  0  0  0
   10.7785    0.3442   24.0790 C   0  0  0  0  0  0  0  0  0  0  0  0
   12.1174    0.7156   24.2035 C   0  0  0  0  0  0  0  0  0  0  0  0
   13.0879    0.1755   23.3805 C   0  0  0  0  0  0  0  0  0  0  0  0
   11.4126   -1.1865   22.3172 C   0  0  0  0  0  0  0  0  0  0  0  0
   12.7245   -0.7761   22.4569 C   0  0  0  0  0  0  0  0  0  0  0  0
   13.9368   -1.4335   21.3952 Cl  0  0  0  0  0  0  0  0  0  0  0  0
    8.1176   -0.5260   24.0875 C   0  0  0  0  0  0  0  0  0  0  0  0
    8.3768    0.8727   24.4314 N   0  3  2  0  0  0  0  0  0  0  0  0
    9.7463    1.0221   24.9527 C   0  0  0  0  0  0  0  0  0  0  0  0
    7.3902    1.4063   25.3663 C   0  0  0  0  0  0  0  0  0  0  0  0
    6.6678    2.6483   24.8727 C   0  0  0  0  0  0  0  0  0  0  0  0
    5.4753    2.8247   25.1189 O   0  0  0  0  0  0  0  0  0  0  0  0
    7.3995    3.5143   24.1638 N   0  0  0  0  0  0  0  0  0  0  0  0
    6.9972    3.9967   22.8423 C   0  0  0  0  0  0  0  0  0  0  0  0
    5.9765    5.0624   22.7589 C   0  0  0  0  0  0  0  0  0  0  0  0
    7.3931    5.3629   22.4420 C   0  0  0  0  0  0  0  0  0  0  0  0
    7.0352   -1.4714   21.3819 H   0  0  0  0  0  0  0  0  0  0  0  0
    5.4036    0.4757   22.3255 H   0  0  0  0  0  0  0  0  0  0  0  0
    3.4250    1.8555   22.6279 H   0  0  0  0  0  0  0  0  0  0  0  0
    2.3762    2.9834   20.7094 H   0  0  0  0  0  0  0  0  0  0  0  0
    3.2448    2.6602   18.4553 H   0  0  0  0  0  0  0  0  0  0  0  0
    4.9092    1.5722   16.9317 H   0  0  0  0  0  0  0  0  0  0  0  0
    7.9366   -0.8126   18.4121 H   0  0  0  0  0  0  0  0  0  0  0  0
    8.8209   -1.9784   22.6450 H   0  0  0  0  0  0  0  0  0  0  0  0
   12.4004    1.4372   24.9555 H   0  0  0  0  0  0  0  0  0  0  0  0
   14.1161    0.4962   23.4618 H   0  0  0  0  0  0  0  0  0  0  0  0
   11.1567   -1.9534   21.6011 H   0  0  0  0  0  0  0  0  0  0  0  0
    7.0490   -0.6569   23.8614 H   0  0  0  0  0  0  0  0  0  0  0  0
    8.3947   -1.1702   24.9350 H   0  0  0  0  0  0  0  0  0  0  0  0
    8.3160    1.4077   23.5886 H   0  0  0  0  0  0  0  0  0  0  0  0
    9.9852    2.0941   25.0132 H   0  0  0  0  0  0  0  0  0  0  0  0
    9.7905    0.5793   25.9586 H   0  0  0  0  0  0  0  0  0  0  0  0
    6.6401    0.6250   25.5583 H   0  0  0  0  0  0  0  0  0  0  0  0
    7.9060    1.6579   26.3047 H   0  0  0  0  0  0  0  0  0  0  0  0
    8.2585    3.8464   24.5534 H   0  0  0  0  0  0  0  0  0  0  0  0
    6.9762    3.2471   22.0376 H   0  0  0  0  0  0  0  0  0  0  0  0
    5.2250    5.0431   21.9558 H   0  0  0  0  0  0  0  0  0  0  0  0
    5.5215    5.4617   23.6773 H   0  0  0  0  0  0  0  0  0  0  0  0
    7.9897    5.9853   23.1251 H   0  0  0  0  0  0  0  0  0  0  0  0
    7.6933    5.5667   21.4036 H   0  0  0  0  0  0  0  0  0  0  0  0
  1  2  2  0  0  0  0
  2  3  1  0  0  0  0
  2 14  1  0  0  0  0
  3  4  1  0  0  0  0
  3 32  1  0  0  0  0
  4  5  2  0  0  0  0
  4 13  1  0  0  0  0
  5  6  1  0  0  0  0
  5 10  1  0  0  0  0
  6  7  2  0  0  0  0
  6 33  1  0  0  0  0
  7  8  1  0  0  0  0
  7 34  1  0  0  0  0
  8  9  2  0  0  0  0
  8 35  1  0  0  0  0
  9 10  1  0  0  0  0
  9 36  1  0  0  0  0
 10 11  2  0  0  0  0
 11 12  1  0  0  0  0
 11 37  1  0  0  0  0
 12 13  2  0  0  0  0
 13 38  1  0  0  0  0
 14 15  1  0  0  0  0
 14 22  1  0  0  0  0
 14 39  1  0  0  0  0
 15 16  2  0  0  0  0
 15 19  1  0  0  0  0
 16 17  1  0  0  0  0
 16 24  1  0  0  0  0
 17 18  2  0  0  0  0
 17 40  1  0  0  0  0
 18 20  1  0  0  0  0
 18 41  1  0  0  0  0
 19 20  2  0  0  0  0
 19 42  1  0  0  0  0
 20 21  1  0  0  0  0
 22 23  1  0  0  0  0
 22 43  1  0  0  0  0
 22 44  1  0  0  0  0
 23 24  1  0  0  0  0
 23 25  1  0  0  0  0
 23 45  1  0  0  0  0
 24 46  1  0  0  0  0
 24 47  1  0  0  0  0
 25 26  1  0  0  0  0
 25 48  1  0  0  0  0
 25 49  1  0  0  0  0
 26 27  2  0  0  0  0
 26 28  1  0  0  0  0
 28 29  1  0  0  0  0
 28 50  1  0  0  0  0
 29 30  1  0  0  0  0
 29 31  1  0  0  0  0
 29 51  1  0  0  0  0
 30 31  1  0  0  0  0
 30 52  1  0  0  0  0
 30 53  1  0  0  0  0
 31 54  1  0  0  0  0
 31 55  1  0  0  0  0
M  CHG  1  23   1
M  END
> <compound_name>
MAT-POS-5cd9ea36-13

> <provenance>
{"isomeric_smiles": "c1ccc2c(c1)cncc2NC(=O)[C@@H]3C[N@H+](Cc4c3cc(cc4)Cl)CC(=O)NC5CC5", "inchi": "InChI=1S/C24H23ClN4O2/c25-17-6-5-16-12-29(14-23(30)27-18-7-8-18)13-21(20(16)9-17)24(31)28-22-11-26-10-15-3-1-2-4-19(15)22/h1-6,9-11,18,21H,7-8,12-14H2,(H,27,30)(H,28,31)/p+1/t21-/m1/s1", "inchi_key": "ULPUVHVLGAEZBJ-OAQYLSRUSA-O", "fixed_inchi": "InChI=1/C24H23ClN4O2/c25-17-6-5-16-12-29(14-23(30)27-18-7-8-18)13-21(20(16)9-17)24(31)28-22-11-26-10-15-3-1-2-4-19(15)22/h1-6,9-11,18,21H,7-8,12-14H2,(H,27,30)(H,28,31)/p+1/t21-/m1/s1/fC24H24ClN4O2/h27-29H/q+1", "fixed_inchikey": "ULPUVHVLGAEZBJ-GJEMBCJCNA-O"}

> <data_format>
sdf

$$$$
