LIG(A-306)
  -OEChem-06042511403D

 58 62  0     1  0  0  0  0  0999 V2000
   14.1075   -1.5301   21.2708 Cl  0  0  0  0  0  0  0  0  0  0  0  0
   12.8996   -0.8061   22.2939 C   0  0  0  0  0  0  0  0  0  0  0  0
   11.5796   -1.1961   22.1570 C   0  0  0  0  0  0  0  0  0  0  0  0
   13.2757    0.1629   23.1928 C   0  0  0  0  0  0  0  0  0  0  0  0
   12.3098    0.7449   23.9899 C   0  0  0  0  0  0  0  0  0  0  0  0
   10.9658    0.3929   23.8731 C   0  0  0  0  0  0  0  0  0  0  0  0
    9.9808    1.0869   24.7892 C   0  0  0  0  0  0  0  0  0  0  0  0
    8.5848    0.6848   24.5713 N   0  0  3  0  0  0  0  0  0  0  0  0
    7.3129    1.5428   25.0184 S   0  0  0  0  0  0  0  0  0  0  0  0
    7.3310    1.6388   26.4364 O   0  0  0  0  0  0  0  0  0  0  0  0
    6.1758    1.0248   24.3365 O   0  0  0  0  0  0  0  0  0  0  0  0
    7.7188    2.9778   24.4394 N   0  0  2  0  0  0  0  0  0  0  0  0
    7.8049    4.1778   25.2994 C   0  0  0  0  0  0  0  0  0  0  0  0
    7.1788    5.2958   24.4664 C   0  0  0  0  0  0  0  0  0  0  0  0
    7.3987    3.3968   23.0574 C   0  0  0  0  0  0  0  0  0  0  0  0
    6.4637    4.5718   23.3025 C   0  0  2  0  0  0  0  0  0  0  0  0
    6.2456    5.4418   22.0705 C   0  0  0  0  0  0  0  0  0  0  0  0
   10.5947   -0.5771   22.9291 C   0  0  0  0  0  0  0  0  0  0  0  0
    9.1287   -0.9011   22.7222 C   0  0  1  0  0  0  0  0  0  0  0  0
    8.3538   -0.6622   24.0153 C   0  0  0  0  0  0  0  0  0  0  0  0
    8.5536   -0.0711   21.5713 C   0  0  0  0  0  0  0  0  0  0  0  0
    9.0695    0.9849   21.2052 O   0  0  0  0  0  0  0  0  0  0  0  0
    7.4365   -0.5891   20.9994 N   0  0  0  0  0  0  0  0  0  0  0  0
    6.6854   -0.0461   19.9314 C   0  0  0  0  0  0  0  0  0  0  0  0
    5.5624    0.7889   20.2346 C   0  0  0  0  0  0  0  0  0  0  0  0
    5.0735    1.0108   21.5486 C   0  0  0  0  0  0  0  0  0  0  0  0
    3.9806    1.7998   21.7707 C   0  0  0  0  0  0  0  0  0  0  0  0
    3.3295    2.4218   20.7098 C   0  0  0  0  0  0  0  0  0  0  0  0
    3.7633    2.2458   19.4277 C   0  0  0  0  0  0  0  0  0  0  0  0
    4.8793    1.4159   19.1516 C   0  0  0  0  0  0  0  0  0  0  0  0
    5.3392    1.1479   17.8376 C   0  0  0  0  0  0  0  0  0  0  0  0
    6.3722    0.3639   17.5555 N   0  0  0  0  0  0  0  0  0  0  0  0
    7.0183   -0.2041   18.5834 C   0  0  0  0  0  0  0  0  0  0  0  0
   11.3126   -1.9744   21.4574 H   0  0  0  0  0  0  0  0  0  0  0  0
   14.3096    0.4643   23.2746 H   0  0  0  0  0  0  0  0  0  0  0  0
   12.6011    1.4873   24.7181 H   0  0  0  0  0  0  0  0  0  0  0  0
   10.2508    0.8533   25.8296 H   0  0  0  0  0  0  0  0  0  0  0  0
   10.0592    2.1717   24.6248 H   0  0  0  0  0  0  0  0  0  0  0  0
    7.2424    4.0276   26.2327 H   0  0  0  0  0  0  0  0  0  0  0  0
    8.8534    4.4110   25.5366 H   0  0  0  0  0  0  0  0  0  0  0  0
    6.4572    5.8686   25.0675 H   0  0  0  0  0  0  0  0  0  0  0  0
    7.9554    5.9733   24.0820 H   0  0  0  0  0  0  0  0  0  0  0  0
    8.3021    3.7096   22.5133 H   0  0  0  0  0  0  0  0  0  0  0  0
    6.8953    2.5927   22.5006 H   0  0  0  0  0  0  0  0  0  0  0  0
    5.4929    4.1958   23.6577 H   0  0  0  0  0  0  0  0  0  0  0  0
    5.5627    6.2673   22.3202 H   0  0  0  0  0  0  0  0  0  0  0  0
    7.2098    5.8522   21.7362 H   0  0  0  0  0  0  0  0  0  0  0  0
    5.8069    4.8339   21.2656 H   0  0  0  0  0  0  0  0  0  0  0  0
    9.0409   -1.9652   22.4577 H   0  0  0  0  0  0  0  0  0  0  0  0
    8.6687   -1.4095   24.7586 H   0  0  0  0  0  0  0  0  0  0  0  0
    7.2796   -0.7796   23.8097 H   0  0  0  0  0  0  0  0  0  0  0  0
    7.1069   -1.4544   21.3769 H   0  0  0  0  0  0  0  0  0  0  0  0
    5.5738    0.5484   22.3866 H   0  0  0  0  0  0  0  0  0  0  0  0
    3.6187    1.9420   22.7783 H   0  0  0  0  0  0  0  0  0  0  0  0
    2.4724    3.0500   20.9028 H   0  0  0  0  0  0  0  0  0  0  0  0
    3.2523    2.7430   18.6166 H   0  0  0  0  0  0  0  0  0  0  0  0
    4.8158    1.6110   17.0141 H   0  0  0  0  0  0  0  0  0  0  0  0
    7.8640   -0.8344   18.3512 H   0  0  0  0  0  0  0  0  0  0  0  0
  1  2  1  0  0  0  0
  2  3  2  0  0  0  0
  2  4  1  0  0  0  0
  3 18  1  0  0  0  0
  3 34  1  0  0  0  0
  4  5  2  0  0  0  0
  4 35  1  0  0  0  0
  5  6  1  0  0  0  0
  5 36  1  0  0  0  0
  6  7  1  0  0  0  0
  6 18  2  0  0  0  0
  7  8  1  0  0  0  0
  7 37  1  0  0  0  0
  7 38  1  0  0  0  0
  8  9  1  0  0  0  0
  8 20  1  0  0  0  0
  9 10  2  0  0  0  0
  9 11  2  0  0  0  0
  9 12  1  0  0  0  0
 12 13  1  0  0  0  0
 12 15  1  0  0  0  0
 13 14  1  0  0  0  0
 13 39  1  0  0  0  0
 13 40  1  0  0  0  0
 14 16  1  0  0  0  0
 14 41  1  0  0  0  0
 14 42  1  0  0  0  0
 15 16  1  0  0  0  0
 15 43  1  0  0  0  0
 15 44  1  0  0  0  0
 16 17  1  0  0  0  0
 16 45  1  0  0  0  0
 17 46  1  0  0  0  0
 17 47  1  0  0  0  0
 17 48  1  0  0  0  0
 18 19  1  0  0  0  0
 19 20  1  0  0  0  0
 19 21  1  0  0  0  0
 19 49  1  0  0  0  0
 20 50  1  0  0  0  0
 20 51  1  0  0  0  0
 21 22  2  0  0  0  0
 21 23  1  0  0  0  0
 23 24  1  0  0  0  0
 23 52  1  0  0  0  0
 24 25  2  0  0  0  0
 24 33  1  0  0  0  0
 25 26  1  0  0  0  0
 25 30  1  0  0  0  0
 26 27  2  0  0  0  0
 26 53  1  0  0  0  0
 27 28  1  0  0  0  0
 27 54  1  0  0  0  0
 28 29  2  0  0  0  0
 28 55  1  0  0  0  0
 29 30  1  0  0  0  0
 29 56  1  0  0  0  0
 30 31  2  0  0  0  0
 31 32  1  0  0  0  0
 31 57  1  0  0  0  0
 32 33  2  0  0  0  0
 33 58  1  0  0  0  0
M  END
> <compound_name>
MAT-POS-4223bc15-11

> <provenance>
{"isomeric_smiles": "C[C@@H]1CC[N@](C1)S(=O)(=O)N2Cc3ccc(cc3[C@@H](C2)C(=O)Nc4cncc5c4cccc5)Cl", "inchi": "InChI=1S/C24H25ClN4O3S/c1-16-8-9-28(13-16)33(31,32)29-14-18-6-7-19(25)10-21(18)22(15-29)24(30)27-23-12-26-11-17-4-2-3-5-20(17)23/h2-7,10-12,16,22H,8-9,13-15H2,1H3,(H,27,30)/t16-,22-/m1/s1", "inchi_key": "DHYOVGSVGPDDRX-OPAMFIHVSA-N", "fixed_inchi": "InChI=1/C24H25ClN4O3S/c1-16-8-9-28(13-16)33(31,32)29-14-18-6-7-19(25)10-21(18)22(15-29)24(30)27-23-12-26-11-17-4-2-3-5-20(17)23/h2-7,10-12,16,22H,8-9,13-15H2,1H3,(H,27,30)/t16-,22-/m1/s1/f/h27H", "fixed_inchikey": "DHYOVGSVGPDDRX-MTKKNKMINA-N"}

> <data_format>
sdf

$$$$
