LIG(A-305)
  -OEChem-06042511333D

 32 34  0     0  0  0  0  0  0999 V2000
    8.8073    0.6004   20.9025 O   0  0  0  0  0  0  0  0  0  0  0  0
    8.2274   -0.2676   21.5565 C   0  0  0  0  0  0  0  0  0  0  0  0
    8.9704   -1.2386   22.4526 C   0  0  0  0  0  0  0  0  0  0  0  0
   10.3893   -0.8054   22.7447 C   0  0  0  0  0  0  0  0  0  0  0  0
   10.6611    0.2806   23.5677 C   0  0  0  0  0  0  0  0  0  0  0  0
   11.9641    0.7247   23.7498 C   0  0  0  0  0  0  0  0  0  0  0  0
   13.0112    0.0928   23.0979 C   0  0  0  0  0  0  0  0  0  0  0  0
   11.4434   -1.4594   22.1268 C   0  0  0  0  0  0  0  0  0  0  0  0
   12.7264   -0.9893   22.2859 C   0  0  0  0  0  0  0  0  0  0  0  0
   14.0075   -1.7372   21.3710 Cl  0  0  0  0  0  0  0  0  0  0  0  0
    6.8844   -0.4088   21.6024 N   0  0  0  0  0  0  0  0  0  0  0  0
    5.9074    0.3761   20.9423 C   0  0  0  0  0  0  0  0  0  0  0  0
    5.9705    0.5211   19.5453 C   0  0  0  0  0  0  0  0  0  0  0  0
    6.7976    0.0792   18.4844 C   0  0  0  0  0  0  0  0  0  0  0  0
    6.3926    0.5561   17.3233 N   0  0  0  0  0  0  0  0  0  0  0  0
    5.2916    1.3210   17.5922 N   0  0  0  0  0  0  0  0  0  0  0  0
    4.9964    1.3230   18.9192 C   0  0  0  0  0  0  0  0  0  0  0  0
    3.9843    1.9500   19.6361 C   0  0  0  0  0  0  0  0  0  0  0  0
    3.9332    1.7780   21.0111 C   0  0  0  0  0  0  0  0  0  0  0  0
    4.8832    1.0051   21.6602 C   0  0  0  0  0  0  0  0  0  0  0  0
    8.4265   -1.3230   23.4050 H   0  0  0  0  0  0  0  0  0  0  0  0
    8.9984   -2.2208   21.9581 H   0  0  0  0  0  0  0  0  0  0  0  0
    9.8499    0.7850   24.0714 H   0  0  0  0  0  0  0  0  0  0  0  0
   12.1618    1.5637   24.4004 H   0  0  0  0  0  0  0  0  0  0  0  0
   14.0271    0.4380   23.2215 H   0  0  0  0  0  0  0  0  0  0  0  0
   11.2582   -2.3351   21.5224 H   0  0  0  0  0  0  0  0  0  0  0  0
    6.5391   -1.1563   22.1699 H   0  0  0  0  0  0  0  0  0  0  0  0
    7.6532   -0.5678   18.6103 H   0  0  0  0  0  0  0  0  0  0  0  0
    4.7678    1.8166   16.8959 H   0  0  0  0  0  0  0  0  0  0  0  0
    3.2504    2.5605   19.1311 H   0  0  0  0  0  0  0  0  0  0  0  0
    3.1466    2.2502   21.5810 H   0  0  0  0  0  0  0  0  0  0  0  0
    4.8328    0.8867   22.7325 H   0  0  0  0  0  0  0  0  0  0  0  0
  1  2  2  0  0  0  0
  2  3  1  0  0  0  0
  2 11  1  0  0  0  0
  3  4  1  0  0  0  0
  3 21  1  0  0  0  0
  3 22  1  0  0  0  0
  4  5  2  0  0  0  0
  4  8  1  0  0  0  0
  5  6  1  0  0  0  0
  5 23  1  0  0  0  0
  6  7  2  0  0  0  0
  6 24  1  0  0  0  0
  7  9  1  0  0  0  0
  7 25  1  0  0  0  0
  8  9  2  0  0  0  0
  8 26  1  0  0  0  0
  9 10  1  0  0  0  0
 11 12  1  0  0  0  0
 11 27  1  0  0  0  0
 12 13  2  0  0  0  0
 12 20  1  0  0  0  0
 13 14  1  0  0  0  0
 13 17  1  0  0  0  0
 14 15  2  0  0  0  0
 14 28  1  0  0  0  0
 15 16  1  0  0  0  0
 16 17  1  0  0  0  0
 16 29  1  0  0  0  0
 17 18  2  0  0  0  0
 18 19  1  0  0  0  0
 18 30  1  0  0  0  0
 19 20  2  0  0  0  0
 19 31  1  0  0  0  0
 20 32  1  0  0  0  0
M  END
> <compound_name>
VLA-UCB-00f2c2b3-7

> <provenance>
{"isomeric_smiles": "c1cc(cc(c1)Cl)CC(=O)Nc2cccc3c2cn[nH]3", "inchi": "InChI=1S/C15H12ClN3O/c16-11-4-1-3-10(7-11)8-15(20)18-13-5-2-6-14-12(13)9-17-19-14/h1-7,9H,8H2,(H,17,19)(H,18,20)", "inchi_key": "CYQCEAJKJVOFMS-UHFFFAOYSA-N", "fixed_inchi": "InChI=1/C15H12ClN3O/c16-11-4-1-3-10(7-11)8-15(20)18-13-5-2-6-14-12(13)9-17-19-14/h1-7,9H,8H2,(H,17,19)(H,18,20)/f/h18-19H", "fixed_inchikey": "CYQCEAJKJVOFMS-VEWCPZSHNA-N"}

> <data_format>
sdf

$$$$
