LIG(A-305)
  -OEChem-06042511333D

 37 38  0     0  0  0  0  0  0999 V2000
    7.1326   -1.4265   21.5493 N   0  0  0  0  0  0  0  0  0  0  0  0
   11.1928    0.3851   23.1062 C   0  0  0  0  0  0  0  0  0  0  0  0
    4.6577    0.6018   20.4145 C   0  0  0  0  0  0  0  0  0  0  0  0
    9.4376   -1.1347   22.7582 O   0  0  0  0  0  0  0  0  0  0  0  0
    7.4485   -2.3966   22.5893 C   0  0  0  0  0  0  0  0  0  0  0  0
    6.5536    1.2327   16.8844 O   0  0  0  0  0  0  0  0  0  0  0  0
   12.5398    0.7230   23.0762 C   0  0  0  0  0  0  0  0  0  0  0  0
   10.7937   -0.9369   22.8242 C   0  0  0  0  0  0  0  0  0  0  0  0
   11.7486   -1.9029   22.5461 C   0  0  0  0  0  0  0  0  0  0  0  0
   13.0886   -1.5480   22.5121 C   0  0  0  0  0  0  0  0  0  0  0  0
    5.6676   -0.3233   19.9864 C   0  0  0  0  0  0  0  0  0  0  0  0
    5.9836    0.9567   17.9474 C   0  0  0  0  0  0  0  0  0  0  0  0
    6.0205   -1.5134   20.8194 C   0  0  0  0  0  0  0  0  0  0  0  0
    4.3598    1.6298   19.5975 C   0  0  0  0  0  0  0  0  0  0  0  0
    6.2996   -0.1413   18.7844 C   0  0  0  0  0  0  0  0  0  0  0  0
   10.4980    2.6281   23.5873 C   0  0  0  0  0  0  0  0  0  0  0  0
    5.0007    1.7978   18.4115 N   0  0  0  0  0  0  0  0  0  0  0  0
   10.1699    1.2542   23.3773 O   0  0  0  0  0  0  0  0  0  0  0  0
    5.2835   -2.4973   20.8584 O   0  0  0  0  0  0  0  0  0  0  0  0
    8.9235   -2.4727   22.8482 C   0  0  0  0  0  0  0  0  0  0  0  0
   13.4787   -0.2471   22.7691 C   0  0  0  0  0  0  0  0  0  0  0  0
    7.7682   -0.6737   21.3781 H   0  0  0  0  0  0  0  0  0  0  0  0
    4.1529    0.4775   21.3612 H   0  0  0  0  0  0  0  0  0  0  0  0
    6.9384   -2.1019   23.5182 H   0  0  0  0  0  0  0  0  0  0  0  0
    7.0907   -3.3874   22.2729 H   0  0  0  0  0  0  0  0  0  0  0  0
   12.8522    1.7344   23.2906 H   0  0  0  0  0  0  0  0  0  0  0  0
   11.4510   -2.9239   22.3575 H   0  0  0  0  0  0  0  0  0  0  0  0
   13.8342   -2.2949   22.2826 H   0  0  0  0  0  0  0  0  0  0  0  0
    3.5960    2.3349   19.8910 H   0  0  0  0  0  0  0  0  0  0  0  0
    7.0527   -0.8484   18.4692 H   0  0  0  0  0  0  0  0  0  0  0  0
    9.5797    3.1977   23.7928 H   0  0  0  0  0  0  0  0  0  0  0  0
   11.1824    2.7147   24.4441 H   0  0  0  0  0  0  0  0  0  0  0  0
   10.9851    3.0304   22.6868 H   0  0  0  0  0  0  0  0  0  0  0  0
    4.7398    2.5770   17.8335 H   0  0  0  0  0  0  0  0  0  0  0  0
    9.1097   -2.8817   23.8522 H   0  0  0  0  0  0  0  0  0  0  0  0
    9.4061   -3.1137   22.0958 H   0  0  0  0  0  0  0  0  0  0  0  0
   14.5256    0.0151   22.7301 H   0  0  0  0  0  0  0  0  0  0  0  0
  1  5  1  0  0  0  0
  1 13  1  0  0  0  0
  1 22  1  0  0  0  0
  2  7  2  0  0  0  0
  2  8  1  0  0  0  0
  2 18  1  0  0  0  0
  3 11  1  0  0  0  0
  3 14  2  0  0  0  0
  3 23  1  0  0  0  0
  4  8  1  0  0  0  0
  4 20  1  0  0  0  0
  5 20  1  0  0  0  0
  5 24  1  0  0  0  0
  5 25  1  0  0  0  0
  6 12  2  0  0  0  0
  7 21  1  0  0  0  0
  7 26  1  0  0  0  0
  8  9  2  0  0  0  0
  9 10  1  0  0  0  0
  9 27  1  0  0  0  0
 10 21  2  0  0  0  0
 10 28  1  0  0  0  0
 11 13  1  0  0  0  0
 11 15  2  0  0  0  0
 12 15  1  0  0  0  0
 12 17  1  0  0  0  0
 13 19  2  0  0  0  0
 14 17  1  0  0  0  0
 14 29  1  0  0  0  0
 15 30  1  0  0  0  0
 16 18  1  0  0  0  0
 16 31  1  0  0  0  0
 16 32  1  0  0  0  0
 16 33  1  0  0  0  0
 17 34  1  0  0  0  0
 20 35  1  0  0  0  0
 20 36  1  0  0  0  0
 21 37  1  0  0  0  0
M  END
> <compound_name>
BEN-DND-7e92b6ca-1

> <provenance>
{"isomeric_smiles": "COc1ccccc1OCCNC(=O)c2cc[nH]c(=O)c2", "inchi": "InChI=1S/C15H16N2O4/c1-20-12-4-2-3-5-13(12)21-9-8-17-15(19)11-6-7-16-14(18)10-11/h2-7,10H,8-9H2,1H3,(H,16,18)(H,17,19)", "inchi_key": "CBWZUHGOUYMWKG-UHFFFAOYSA-N", "fixed_inchi": "InChI=1/C15H16N2O4/c1-20-12-4-2-3-5-13(12)21-9-8-17-15(19)11-6-7-16-14(18)10-11/h2-7,10H,8-9H2,1H3,(H,16,18)(H,17,19)/f/h16-17H", "fixed_inchikey": "CBWZUHGOUYMWKG-XQMQJMAZNA-N"}

> <data_format>
sdf

$$$$
