LIG(A-306)
  -OEChem-06042511383D

 66 69  0     1  0  0  0  0  0999 V2000
    5.1686   -2.0444   21.4990 O   0  0  0  0  0  0  0  0  0  0  0  0
    6.3319   -2.2889   21.7523 C   0  0  0  0  0  0  0  0  0  0  0  0
    6.6583   -3.7224   22.0483 C   0  0  0  0  0  0  0  0  0  0  0  0
    5.7180   -4.6999   21.7628 N   0  0  0  0  0  0  0  0  0  0  0  0
    6.2535   -5.8282   22.1982 C   0  0  0  0  0  0  0  0  0  0  0  0
    7.4651   -5.6362   22.7306 N   0  3  0  0  0  0  0  0  0  0  0  0
    7.7409   -4.3024   22.6442 C   0  0  0  0  0  0  0  0  0  0  0  0
    7.2589   -1.3037   21.8387 N   0  0  0  0  0  0  0  0  0  0  0  0
    8.5326   -1.4696   22.4717 C   0  0  0  0  0  0  0  0  0  0  0  0
    8.6240   -1.4673   23.8626 C   0  0  0  0  0  0  0  0  0  0  0  0
    9.8576   -1.5672   24.4785 C   0  0  0  0  0  0  0  0  0  0  0  0
    9.6928   -1.5878   21.7067 C   0  0  0  0  0  0  0  0  0  0  0  0
   10.9294   -1.6707   22.3246 C   0  0  0  0  0  0  0  0  0  0  0  0
   11.0098   -1.6464   23.7105 C   0  0  0  0  0  0  0  0  0  0  0  0
   12.1386   -1.6510   24.5044 O   0  0  0  0  0  0  0  0  0  0  0  0
   13.4540   -1.8219   23.9044 C   0  0  0  0  0  0  0  0  0  0  0  0
   14.2881   -2.4611   24.9876 C   0  0  0  0  0  0  0  0  0  0  0  0
   13.9615   -0.4606   23.5026 C   0  0  0  0  0  0  0  0  0  0  0  0
    6.8794    0.0796   21.4478 C   0  0  2  0  0  0  0  0  0  0  0  0
    6.1981    0.2394   20.0972 C   0  0  0  0  0  0  0  0  0  0  0  0
    6.7389   -0.2975   18.9356 C   0  0  0  0  0  0  0  0  0  0  0  0
    6.3307    0.0204   17.6995 N   0  0  0  0  0  0  0  0  0  0  0  0
    5.3295    0.9002   17.5910 C   0  0  0  0  0  0  0  0  0  0  0  0
    4.6956    1.4640   18.6787 C   0  0  0  0  0  0  0  0  0  0  0  0
    5.1349    1.1141   19.9439 C   0  0  0  0  0  0  0  0  0  0  0  0
    7.9616    1.1511   21.6720 C   0  0  0  0  0  0  0  0  0  0  0  0
    8.8368    1.3497   20.8378 O   0  0  0  0  0  0  0  0  0  0  0  0
    7.8557    1.8449   22.8049 N   0  0  0  0  0  0  0  0  0  0  0  0
    8.7970    2.9025   23.1473 C   0  0  0  0  0  0  0  0  0  0  0  0
   10.0716    2.3496   23.7749 C   0  0  0  0  0  0  0  0  0  0  0  0
   11.0510    3.4383   24.1471 C   0  0  0  0  0  0  0  0  0  0  0  0
   12.1181    3.7370   23.3076 C   0  0  0  0  0  0  0  0  0  0  0  0
   12.9524    4.7776   23.6380 C   0  0  0  0  0  0  0  0  0  0  0  0
   13.9985    5.0493   22.8125 F   0  0  0  0  0  0  0  0  0  0  0  0
   12.7885    5.5484   24.7589 C   0  0  0  0  0  0  0  0  0  0  0  0
   11.7343    5.2398   25.6055 C   0  0  0  0  0  0  0  0  0  0  0  0
   10.8751    4.1942   25.3001 C   0  0  0  0  0  0  0  0  0  0  0  0
    4.8281   -4.5785   21.3232 H   0  0  0  0  0  0  0  0  0  0  0  0
    5.7693   -6.7912   22.1314 H   0  0  0  0  0  0  0  0  0  0  0  0
    8.6382   -3.8042   22.9806 H   0  0  0  0  0  0  0  0  0  0  0  0
    7.7284   -1.3872   24.4609 H   0  0  0  0  0  0  0  0  0  0  0  0
    9.9240   -1.5836   25.5564 H   0  0  0  0  0  0  0  0  0  0  0  0
    9.6266   -1.6147   20.6291 H   0  0  0  0  0  0  0  0  0  0  0  0
   11.8277   -1.7539   21.7308 H   0  0  0  0  0  0  0  0  0  0  0  0
   13.4026   -2.4823   23.0261 H   0  0  0  0  0  0  0  0  0  0  0  0
   15.3095   -2.6275   24.6145 H   0  0  0  0  0  0  0  0  0  0  0  0
   14.3217   -1.7974   25.8641 H   0  0  0  0  0  0  0  0  0  0  0  0
   13.8411   -3.4245   25.2740 H   0  0  0  0  0  0  0  0  0  0  0  0
   14.9569   -0.5601   23.0450 H   0  0  0  0  0  0  0  0  0  0  0  0
   13.2680   -0.0102   22.7772 H   0  0  0  0  0  0  0  0  0  0  0  0
   14.0299    0.1824   24.3925 H   0  0  0  0  0  0  0  0  0  0  0  0
    6.0946    0.3532   22.1684 H   0  0  0  0  0  0  0  0  0  0  0  0
    7.5388   -1.0164   19.0351 H   0  0  0  0  0  0  0  0  0  0  0  0
    5.0007    1.1836   16.6021 H   0  0  0  0  0  0  0  0  0  0  0  0
    3.8794    2.1588   18.5469 H   0  0  0  0  0  0  0  0  0  0  0  0
    4.6466    1.5248   20.8152 H   0  0  0  0  0  0  0  0  0  0  0  0
    7.1101    1.6338   23.4370 H   0  0  0  0  0  0  0  0  0  0  0  0
    9.0612    3.4530   22.2323 H   0  0  0  0  0  0  0  0  0  0  0  0
    8.3173    3.5877   23.8617 H   0  0  0  0  0  0  0  0  0  0  0  0
    9.8039    1.7900   24.6832 H   0  0  0  0  0  0  0  0  0  0  0  0
   10.5541    1.6717   23.0554 H   0  0  0  0  0  0  0  0  0  0  0  0
   12.2886    3.1606   22.4103 H   0  0  0  0  0  0  0  0  0  0  0  0
   13.4572    6.3683   24.9757 H   0  0  0  0  0  0  0  0  0  0  0  0
   11.5816    5.8157   26.5063 H   0  0  0  0  0  0  0  0  0  0  0  0
   10.0579    3.9644   25.9677 H   0  0  0  0  0  0  0  0  0  0  0  0
    8.0592   -6.3400   23.1202 H   0  0  0  0  0  0  0  0  0 25  0  0
  1  2  2  0  0  0  0
  2  3  1  0  0  0  0
  2  8  1  0  0  0  0
  3  4  1  0  0  0  0
  3  7  2  0  0  0  0
  4  5  1  0  0  0  0
  5  6  2  0  0  0  0
  6  7  1  0  0  0  0
  8  9  1  0  0  0  0
  8 19  1  0  0  0  0
  9 10  2  0  0  0  0
  9 12  1  0  0  0  0
 10 11  1  0  0  0  0
 11 14  2  0  0  0  0
 12 13  2  0  0  0  0
 13 14  1  0  0  0  0
 14 15  1  0  0  0  0
 15 16  1  0  0  0  0
 16 17  1  0  0  0  0
 16 18  1  0  0  0  0
 19 20  1  0  0  0  0
 19 26  1  0  0  0  0
 20 21  2  0  0  0  0
 20 25  1  0  0  0  0
 21 22  1  0  0  0  0
 22 23  2  0  0  0  0
 23 24  1  0  0  0  0
 24 25  2  0  0  0  0
 26 27  2  0  0  0  0
 26 28  1  0  0  0  0
 28 29  1  0  0  0  0
 29 30  1  0  0  0  0
 30 31  1  0  0  0  0
 31 32  2  0  0  0  0
 31 37  1  0  0  0  0
 32 33  1  0  0  0  0
 33 34  1  0  0  0  0
 33 35  2  0  0  0  0
 35 36  1  0  0  0  0
 36 37  2  0  0  0  0
  4 38  1  0  0  0  0
  5 39  1  0  0  0  0
  7 40  1  0  0  0  0
 10 41  1  0  0  0  0
 11 42  1  0  0  0  0
 12 43  1  0  0  0  0
 13 44  1  0  0  0  0
 16 45  1  0  0  0  0
 17 46  1  0  0  0  0
 17 47  1  0  0  0  0
 17 48  1  0  0  0  0
 18 49  1  0  0  0  0
 18 50  1  0  0  0  0
 18 51  1  0  0  0  0
 19 52  1  0  0  0  0
 21 53  1  0  0  0  0
 23 54  1  0  0  0  0
 24 55  1  0  0  0  0
 25 56  1  0  0  0  0
 28 57  1  0  0  0  0
 29 58  1  0  0  0  0
 29 59  1  0  0  0  0
 30 60  1  0  0  0  0
 30 61  1  0  0  0  0
 32 62  1  0  0  0  0
 35 63  1  0  0  0  0
 36 64  1  0  0  0  0
 37 65  1  0  0  0  0
  6 66  1  0  0  0  0
M  CHG  1   6   1
M  END
> <compound_name>
BRU-THA-92256091-17

> <provenance>
{"isomeric_smiles": "CC(C)Oc1ccc(cc1)N([C@H](c2cccnc2)C(=O)NCCc3cccc(c3)F)C(=O)c4cnc[nH]4", "inchi": "InChI=1S/C28H28FN5O3/c1-19(2)37-24-10-8-23(9-11-24)34(28(36)25-17-31-18-33-25)26(21-6-4-13-30-16-21)27(35)32-14-12-20-5-3-7-22(29)15-20/h3-11,13,15-19,26H,12,14H2,1-2H3,(H,31,33)(H,32,35)/t26-/m1/s1", "inchi_key": "CXQMRNJWEULDQY-AREMUKBSSA-N", "fixed_inchi": "InChI=1/C28H28FN5O3/c1-19(2)37-24-10-8-23(9-11-24)34(28(36)25-17-31-18-33-25)26(21-6-4-13-30-16-21)27(35)32-14-12-20-5-3-7-22(29)15-20/h3-11,13,15-19,26H,12,14H2,1-2H3,(H,31,33)(H,32,35)/t26-/m1/s1/f/h32-33H", "fixed_inchikey": "CXQMRNJWEULDQY-FWVSAUHJNA-N"}

> <data_format>
sdf

$$$$
