LIG(A-305)
  -OEChem-06042511363D

 35 37  0     1  0  0  0  0  0999 V2000
    9.6765    1.1602   21.1869 O   0  0  0  0  0  0  0  0  0  0  0  0
    9.5294   -0.0368   21.4318 C   0  0  0  0  0  0  0  0  0  0  0  0
   10.5244   -0.8089   22.2698 C   0  0  0  0  0  0  0  0  0  0  0  0
   11.0805   -0.0911   23.4928 C   0  0  1  0  0  0  0  0  0  0  0  0
   11.3885   -0.9082   24.7517 C   0  0  0  0  0  0  0  0  0  0  0  0
   12.8354   -1.4053   24.8276 C   0  0  0  0  0  0  0  0  0  0  0  0
   13.2213   -2.1752   23.5796 C   0  0  0  0  0  0  0  0  0  0  0  0
   13.0893   -1.3152   22.3166 C   0  0  0  0  0  0  0  0  0  0  0  0
   11.9534   -0.2791   22.2907 C   0  0  1  0  0  0  0  0  0  0  0  0
    8.4953   -0.7697   20.9738 N   0  0  0  0  0  0  0  0  0  0  0  0
    7.5153   -0.2436   20.0859 C   0  0  0  0  0  0  0  0  0  0  0  0
    6.2774    0.2085   20.5970 C   0  0  0  0  0  0  0  0  0  0  0  0
    5.9144    0.0534   22.0550 C   0  0  0  0  0  0  0  0  0  0  0  0
    7.7483   -0.1065   18.7139 C   0  0  0  0  0  0  0  0  0  0  0  0
    6.8703    0.4286   17.8590 N   0  0  0  0  0  0  0  0  0  0  0  0
    5.7063    0.8557   18.3600 C   0  0  0  0  0  0  0  0  0  0  0  0
    5.3794    0.7816   19.6981 C   0  0  0  0  0  0  0  0  0  0  0  0
   10.3898   -1.8982   22.3424 H   0  0  0  0  0  0  0  0  0  0  0  0
   10.7006    0.9267   23.6657 H   0  0  0  0  0  0  0  0  0  0  0  0
   11.1919   -0.2774   25.6313 H   0  0  0  0  0  0  0  0  0  0  0  0
   10.7202   -1.7817   24.7703 H   0  0  0  0  0  0  0  0  0  0  0  0
   13.5060   -0.5401   24.9362 H   0  0  0  0  0  0  0  0  0  0  0  0
   12.9423   -2.0640   25.7021 H   0  0  0  0  0  0  0  0  0  0  0  0
   14.2650   -2.5091   23.6756 H   0  0  0  0  0  0  0  0  0  0  0  0
   12.5633   -3.0516   23.4840 H   0  0  0  0  0  0  0  0  0  0  0  0
   14.0367   -0.7717   22.1852 H   0  0  0  0  0  0  0  0  0  0  0  0
   12.9362   -1.9961   21.4664 H   0  0  0  0  0  0  0  0  0  0  0  0
   12.1413    0.6162   21.6798 H   0  0  0  0  0  0  0  0  0  0  0  0
    8.4133   -1.7214   21.2698 H   0  0  0  0  0  0  0  0  0  0  0  0
    6.6484    0.5889   22.6751 H   0  0  0  0  0  0  0  0  0  0  0  0
    4.9122    0.4719   22.2297 H   0  0  0  0  0  0  0  0  0  0  0  0
    5.9180   -1.0136   22.3221 H   0  0  0  0  0  0  0  0  0  0  0  0
    8.6929   -0.4533   18.3217 H   0  0  0  0  0  0  0  0  0  0  0  0
    4.9831    1.2816   17.6803 H   0  0  0  0  0  0  0  0  0  0  0  0
    4.4324    1.1658   20.0474 H   0  0  0  0  0  0  0  0  0  0  0  0
  1  2  2  0  0  0  0
  2  3  1  0  0  0  0
  2 10  1  0  0  0  0
  3  4  1  0  0  0  0
  3  9  1  0  0  0  0
  3 18  1  0  0  0  0
  4  5  1  0  0  0  0
  4  9  1  0  0  0  0
  4 19  1  0  0  0  0
  5  6  1  0  0  0  0
  5 20  1  0  0  0  0
  5 21  1  0  0  0  0
  6  7  1  0  0  0  0
  6 22  1  0  0  0  0
  6 23  1  0  0  0  0
  7  8  1  0  0  0  0
  7 24  1  0  0  0  0
  7 25  1  0  0  0  0
  8  9  1  0  0  0  0
  8 26  1  0  0  0  0
  8 27  1  0  0  0  0
  9 28  1  0  0  0  0
 10 11  1  0  0  0  0
 10 29  1  0  0  0  0
 11 12  2  0  0  0  0
 11 14  1  0  0  0  0
 12 13  1  0  0  0  0
 12 17  1  0  0  0  0
 13 30  1  0  0  0  0
 13 31  1  0  0  0  0
 13 32  1  0  0  0  0
 14 15  2  0  0  0  0
 14 33  1  0  0  0  0
 15 16  1  0  0  0  0
 16 17  2  0  0  0  0
 16 34  1  0  0  0  0
 17 35  1  0  0  0  0
M  END
> <compound_name>
MAT-POS-590ac91e-19

> <provenance>
{"isomeric_smiles": "Cc1ccncc1NC(=O)C2[C@H]3[C@@H]2CCCC3", "inchi": "InChI=1S/C14H18N2O/c1-9-6-7-15-8-12(9)16-14(17)13-10-4-2-3-5-11(10)13/h6-8,10-11,13H,2-5H2,1H3,(H,16,17)/t10-,11+,13+", "inchi_key": "UPGQLXSOIHDKRZ-PJXYFTJBSA-N", "fixed_inchi": "InChI=1/C14H18N2O/c1-9-6-7-15-8-12(9)16-14(17)13-10-4-2-3-5-11(10)13/h6-8,10-11,13H,2-5H2,1H3,(H,16,17)/t10-,11+,13+/f/h16H", "fixed_inchikey": "UPGQLXSOIHDKRZ-IBFQQGEONA-N"}

> <data_format>
sdf

$$$$
