LIG(A-305)
  -OEChem-06042511363D

 43 45  0     1  0  0  0  0  0999 V2000
   14.0325    6.9565   21.5307 O   0  0  0  0  0  0  0  0  0  0  0  0
   13.5113    5.8926   21.8517 C   0  0  0  0  0  0  0  0  0  0  0  0
   13.3410    4.5267   21.2047 C   0  0  0  0  0  0  0  0  0  0  0  0
   12.8734    5.5087   22.9718 N   0  0  0  0  0  0  0  0  0  0  0  0
   12.4991    4.1958   22.4438 C   0  0  2  0  0  0  0  0  0  0  0  0
   13.1160    3.1016   23.1616 O   0  0  0  0  0  0  0  0  0  0  0  0
   12.6487    1.8357   22.8706 C   0  0  0  0  0  0  0  0  0  0  0  0
   13.5185    0.8216   22.4935 C   0  0  0  0  0  0  0  0  0  0  0  0
   12.9862   -0.4203   22.2055 C   0  0  0  0  0  0  0  0  0  0  0  0
   14.0549   -1.7045   21.7063 Cl  0  0  0  0  0  0  0  0  0  0  0  0
   11.6302   -0.6691   22.2867 C   0  0  0  0  0  0  0  0  0  0  0  0
   11.2847    1.6070   22.9618 C   0  0  0  0  0  0  0  0  0  0  0  0
   10.7624    0.3571   22.6528 C   0  0  0  0  0  0  0  0  0  0  0  0
    9.2554    0.1383   22.6580 C   0  0  2  0  0  0  0  0  0  0  0  0
    8.7922   -1.2696   23.0710 C   0  0  0  0  0  0  0  0  0  0  0  0
    8.5404    0.9695   21.5871 C   0  0  0  0  0  0  0  0  0  0  0  0
    8.4526    2.1915   21.6802 O   0  0  0  0  0  0  0  0  0  0  0  0
    8.0671    0.2696   20.5172 N   0  0  0  0  0  0  0  0  0  0  0  0
    6.9070    0.4179   19.7073 C   0  0  0  0  0  0  0  0  0  0  0  0
    5.7802    1.1521   20.1455 C   0  0  0  0  0  0  0  0  0  0  0  0
    5.3954    1.2401   21.6006 C   0  0  0  0  0  0  0  0  0  0  0  0
    4.9012    1.6143   19.1737 C   0  0  0  0  0  0  0  0  0  0  0  0
    5.1179    1.2953   17.8496 C   0  0  0  0  0  0  0  0  0  0  0  0
    6.1297    0.5311   17.4294 N   0  0  0  0  0  0  0  0  0  0  0  0
    6.9968    0.1009   18.3523 C   0  0  0  0  0  0  0  0  0  0  0  0
   12.7922    4.5250   20.2513 H   0  0  0  0  0  0  0  0  0  0  0  0
   14.2658    3.9409   21.0965 H   0  0  0  0  0  0  0  0  0  0  0  0
   12.7125    5.9587   23.8502 H   0  0  0  0  0  0  0  0  0  0  0  0
   11.4274    4.0709   22.2296 H   0  0  0  0  0  0  0  0  0  0  0  0
   14.5818    0.9986   22.4270 H   0  0  0  0  0  0  0  0  0  0  0  0
   11.2447   -1.6538   22.0675 H   0  0  0  0  0  0  0  0  0  0  0  0
   10.6254    2.4033   23.2742 H   0  0  0  0  0  0  0  0  0  0  0  0
    8.9791    0.7047   23.5596 H   0  0  0  0  0  0  0  0  0  0  0  0
    7.6937   -1.3183   23.0409 H   0  0  0  0  0  0  0  0  0  0  0  0
    9.2112   -2.0119   22.3758 H   0  0  0  0  0  0  0  0  0  0  0  0
    9.1408   -1.4854   24.0917 H   0  0  0  0  0  0  0  0  0  0  0  0
    8.6493   -0.4980   20.2493 H   0  0  0  0  0  0  0  0  0  0  0  0
    6.1111    0.6637   22.2052 H   0  0  0  0  0  0  0  0  0  0  0  0
    5.4094    2.2925   21.9204 H   0  0  0  0  0  0  0  0  0  0  0  0
    4.3847    0.8285   21.7379 H   0  0  0  0  0  0  0  0  0  0  0  0
    4.0523    2.2204   19.4539 H   0  0  0  0  0  0  0  0  0  0  0  0
    4.4319    1.6848   17.1119 H   0  0  0  0  0  0  0  0  0  0  0  0
    7.8133   -0.5280   18.0297 H   0  0  0  0  0  0  0  0  0  0  0  0
  1  2  2  0  0  0  0
  2  3  1  0  0  0  0
  2  4  1  0  0  0  0
  3  5  1  0  0  0  0
  3 26  1  0  0  0  0
  3 27  1  0  0  0  0
  4  5  1  0  0  0  0
  4 28  1  0  0  0  0
  5  6  1  0  0  0  0
  5 29  1  0  0  0  0
  6  7  1  0  0  0  0
  7  8  2  0  0  0  0
  7 12  1  0  0  0  0
  8  9  1  0  0  0  0
  8 30  1  0  0  0  0
  9 10  1  0  0  0  0
  9 11  2  0  0  0  0
 11 13  1  0  0  0  0
 11 31  1  0  0  0  0
 12 13  2  0  0  0  0
 12 32  1  0  0  0  0
 13 14  1  0  0  0  0
 14 15  1  0  0  0  0
 14 16  1  0  0  0  0
 14 33  1  0  0  0  0
 15 34  1  0  0  0  0
 15 35  1  0  0  0  0
 15 36  1  0  0  0  0
 16 17  2  0  0  0  0
 16 18  1  0  0  0  0
 18 19  1  0  0  0  0
 18 37  1  0  0  0  0
 19 20  2  0  0  0  0
 19 25  1  0  0  0  0
 20 21  1  0  0  0  0
 20 22  1  0  0  0  0
 21 38  1  0  0  0  0
 21 39  1  0  0  0  0
 21 40  1  0  0  0  0
 22 23  2  0  0  0  0
 22 41  1  0  0  0  0
 23 24  1  0  0  0  0
 23 42  1  0  0  0  0
 24 25  2  0  0  0  0
 25 43  1  0  0  0  0
M  END
> <compound_name>
TRY-UNI-2eddb1ff-8

> <provenance>
{"isomeric_smiles": "Cc1ccncc1NC(=O)[C@@H](C)c2cc(cc(c2)Cl)O[C@@H]3CC(=O)N3", "inchi": "InChI=1S/C18H18ClN3O3/c1-10-3-4-20-9-15(10)21-18(24)11(2)12-5-13(19)7-14(6-12)25-17-8-16(23)22-17/h3-7,9,11,17H,8H2,1-2H3,(H,21,24)(H,22,23)/t11-,17+/m0/s1", "inchi_key": "NGODSAZXSLLARZ-APPDUMDISA-N", "fixed_inchi": "InChI=1/C18H18ClN3O3/c1-10-3-4-20-9-15(10)21-18(24)11(2)12-5-13(19)7-14(6-12)25-17-8-16(23)22-17/h3-7,9,11,17H,8H2,1-2H3,(H,21,24)(H,22,23)/t11-,17+/m0/s1/f/h21-22H", "fixed_inchikey": "NGODSAZXSLLARZ-ORHWWXTMNA-N"}

> <data_format>
sdf

$$$$
