LIG(A-305)
  -OEChem-06042511363D

 33 35  0     0  0  0  0  0  0999 V2000
    9.0384    0.8753   21.1159 O   0  0  0  0  0  0  0  0  0  0  0  0
    8.4485   -0.1447   21.4599 C   0  0  0  0  0  0  0  0  0  0  0  0
    8.9565   -1.0076   22.5980 C   0  0  0  0  0  0  0  0  0  0  0  0
   10.4305   -0.7625   22.8380 C   0  0  0  0  0  0  0  0  0  0  0  0
   10.8554    0.1556   23.7890 C   0  0  0  0  0  0  0  0  0  0  0  0
   12.1983    0.4757   23.9160 C   0  0  0  0  0  0  0  0  0  0  0  0
   13.1424   -0.1213   23.0951 C   0  0  0  0  0  0  0  0  0  0  0  0
   11.3825   -1.3825   22.0321 C   0  0  0  0  0  0  0  0  0  0  0  0
   12.7155   -1.0524   22.1691 C   0  0  0  0  0  0  0  0  0  0  0  0
   13.8926   -1.8683   21.1702 Cl  0  0  0  0  0  0  0  0  0  0  0  0
    7.4415   -0.6748   20.7649 N   0  0  0  0  0  0  0  0  0  0  0  0
    6.6065   -0.2079   19.7339 C   0  0  0  0  0  0  0  0  0  0  0  0
    5.5725    0.7150   20.0828 C   0  0  0  0  0  0  0  0  0  0  0  0
    5.1514    0.7510   21.3828 N   0  0  0  0  0  0  0  0  0  0  0  0
    4.0583    1.4549   21.6497 C   0  0  0  0  0  0  0  0  0  0  0  0
    3.3093    2.1328   20.6947 C   0  0  0  0  0  0  0  0  0  0  0  0
    3.7244    2.1158   19.3977 C   0  0  0  0  0  0  0  0  0  0  0  0
    4.9074    1.4219   19.0547 C   0  0  0  0  0  0  0  0  0  0  0  0
    5.3835    1.2389   17.7348 C   0  0  0  0  0  0  0  0  0  0  0  0
    6.4176    0.4699   17.4168 N   0  0  0  0  0  0  0  0  0  0  0  0
    6.9906   -0.2330   18.3989 C   0  0  0  0  0  0  0  0  0  0  0  0
    8.3963   -0.7650   23.5131 H   0  0  0  0  0  0  0  0  0  0  0  0
    8.8032   -2.0670   22.3442 H   0  0  0  0  0  0  0  0  0  0  0  0
   10.1311    0.6259   24.4375 H   0  0  0  0  0  0  0  0  0  0  0  0
   12.5109    1.1944   24.6590 H   0  0  0  0  0  0  0  0  0  0  0  0
   14.1881    0.1360   23.1779 H   0  0  0  0  0  0  0  0  0  0  0  0
   11.0787   -2.1187   21.3027 H   0  0  0  0  0  0  0  0  0  0  0  0
    7.2336   -1.6141   21.0377 H   0  0  0  0  0  0  0  0  0  0  0  0
    3.7289    1.5044   22.6771 H   0  0  0  0  0  0  0  0  0  0  0  0
    2.4126    2.6645   20.9768 H   0  0  0  0  0  0  0  0  0  0  0  0
    3.1542    2.6284   18.6370 H   0  0  0  0  0  0  0  0  0  0  0  0
    4.8736    1.7572   16.9362 H   0  0  0  0  0  0  0  0  0  0  0  0
    7.8194   -0.8723   18.1329 H   0  0  0  0  0  0  0  0  0  0  0  0
  1  2  2  0  0  0  0
  2  3  1  0  0  0  0
  2 11  1  0  0  0  0
  3  4  1  0  0  0  0
  3 22  1  0  0  0  0
  3 23  1  0  0  0  0
  4  5  2  0  0  0  0
  4  8  1  0  0  0  0
  5  6  1  0  0  0  0
  5 24  1  0  0  0  0
  6  7  2  0  0  0  0
  6 25  1  0  0  0  0
  7  9  1  0  0  0  0
  7 26  1  0  0  0  0
  8  9  2  0  0  0  0
  8 27  1  0  0  0  0
  9 10  1  0  0  0  0
 11 12  1  0  0  0  0
 11 28  1  0  0  0  0
 12 13  2  0  0  0  0
 12 21  1  0  0  0  0
 13 14  1  0  0  0  0
 13 18  1  0  0  0  0
 14 15  2  0  0  0  0
 15 16  1  0  0  0  0
 15 29  1  0  0  0  0
 16 17  2  0  0  0  0
 16 30  1  0  0  0  0
 17 18  1  0  0  0  0
 17 31  1  0  0  0  0
 18 19  2  0  0  0  0
 19 20  1  0  0  0  0
 19 32  1  0  0  0  0
 20 21  2  0  0  0  0
 21 33  1  0  0  0  0
M  END
> <compound_name>
MAT-POS-bb423b95-2

> <provenance>
{"isomeric_smiles": "c1cc(cc(c1)Cl)CC(=O)Nc2cncc3c2nccc3", "inchi": "InChI=1S/C16H12ClN3O/c17-13-5-1-3-11(7-13)8-15(21)20-14-10-18-9-12-4-2-6-19-16(12)14/h1-7,9-10H,8H2,(H,20,21)", "inchi_key": "AFQAFSYTYCJOEN-UHFFFAOYSA-N", "fixed_inchi": "InChI=1/C16H12ClN3O/c17-13-5-1-3-11(7-13)8-15(21)20-14-10-18-9-12-4-2-6-19-16(12)14/h1-7,9-10H,8H2,(H,20,21)/f/h20H", "fixed_inchikey": "AFQAFSYTYCJOEN-UYBDAZJANA-N"}

> <data_format>
sdf

$$$$
