LIG(A-305)
  -OEChem-06042511353D

 38 39  0     0  0  0  0  0  0999 V2000
   11.3724    5.5512   24.0829 O   0  0  0  0  0  0  0  0  0  0  0  0
   10.7474    4.2712   24.0959 S   0  0  0  0  0  0  0  0  0  0  0  0
    9.9545    3.8971   25.2199 O   0  0  0  0  0  0  0  0  0  0  0  0
    9.7863    4.2212   22.7980 N   0  0  0  0  0  0  0  0  0  0  0  0
   11.8484    3.0722   23.8908 N   0  0  0  0  0  0  0  0  0  0  0  0
   11.6744    1.6772   23.5588 C   0  0  0  0  0  0  0  0  0  0  0  0
   12.7944    0.9272   23.1987 C   0  0  0  0  0  0  0  0  0  0  0  0
   12.6094   -0.3588   22.7217 C   0  0  0  0  0  0  0  0  0  0  0  0
   13.9924   -1.2687   22.1776 Cl  0  0  0  0  0  0  0  0  0  0  0  0
   11.3584   -0.9258   22.6138 C   0  0  0  0  0  0  0  0  0  0  0  0
   10.4074    1.0982   23.4829 C   0  0  0  0  0  0  0  0  0  0  0  0
   10.2394   -0.1928   22.9858 C   0  0  0  0  0  0  0  0  0  0  0  0
    8.8554   -0.7378   22.7069 C   0  0  0  0  0  0  0  0  0  0  0  0
    8.2823   -0.0928   21.4600 C   0  0  0  0  0  0  0  0  0  0  0  0
    8.8493    0.8402   20.9119 O   0  0  0  0  0  0  0  0  0  0  0  0
    7.1033   -0.5908   21.0280 N   0  0  0  0  0  0  0  0  0  0  0  0
    6.4392   -0.0288   19.9071 C   0  0  0  0  0  0  0  0  0  0  0  0
    5.2982    0.7742   20.0951 C   0  0  0  0  0  0  0  0  0  0  0  0
    4.6783    0.9781   21.4552 C   0  0  0  0  0  0  0  0  0  0  0  0
    6.9432   -0.1708   18.6120 C   0  0  0  0  0  0  0  0  0  0  0  0
    6.4271    0.4442   17.5441 N   0  0  0  0  0  0  0  0  0  0  0  0
    5.3441    1.2052   17.7372 C   0  0  0  0  0  0  0  0  0  0  0  0
    4.7551    1.3902   18.9722 C   0  0  0  0  0  0  0  0  0  0  0  0
   10.0688    3.4693   22.2022 H   0  0  0  0  0  0  0  0  0  0  0  0
    9.8543    5.0850   22.2988 H   0  0  0  0  0  0  0  0  0  0  0  0
   12.7832    3.4028   23.7608 H   0  0  0  0  0  0  0  0  0  0  0  0
   13.7872    1.3424   23.2905 H   0  0  0  0  0  0  0  0  0  0  0  0
   11.2489   -1.9339   22.2421 H   0  0  0  0  0  0  0  0  0  0  0  0
    9.5451    1.6581   23.8137 H   0  0  0  0  0  0  0  0  0  0  0  0
    8.9161   -1.8260   22.5584 H   0  0  0  0  0  0  0  0  0  0  0  0
    8.1997   -0.5207   23.5630 H   0  0  0  0  0  0  0  0  0  0  0  0
    6.6923   -1.3674   21.5055 H   0  0  0  0  0  0  0  0  0  0  0  0
    5.4154    1.4387   22.1294 H   0  0  0  0  0  0  0  0  0  0  0  0
    3.8028    1.6377   21.3637 H   0  0  0  0  0  0  0  0  0  0  0  0
    4.3642    0.0065   21.8643 H   0  0  0  0  0  0  0  0  0  0  0  0
    7.7983   -0.8141   18.4658 H   0  0  0  0  0  0  0  0  0  0  0  0
    4.9076    1.7007   16.8825 H   0  0  0  0  0  0  0  0  0  0  0  0
    3.8762    2.0108   19.0662 H   0  0  0  0  0  0  0  0  0  0  0  0
  1  2  2  0  0  0  0
  2  3  2  0  0  0  0
  2  4  1  0  0  0  0
  2  5  1  0  0  0  0
  4 24  1  0  0  0  0
  4 25  1  0  0  0  0
  5  6  1  0  0  0  0
  5 26  1  0  0  0  0
  6  7  2  0  0  0  0
  6 11  1  0  0  0  0
  7  8  1  0  0  0  0
  7 27  1  0  0  0  0
  8  9  1  0  0  0  0
  8 10  2  0  0  0  0
 10 12  1  0  0  0  0
 10 28  1  0  0  0  0
 11 12  2  0  0  0  0
 11 29  1  0  0  0  0
 12 13  1  0  0  0  0
 13 14  1  0  0  0  0
 13 30  1  0  0  0  0
 13 31  1  0  0  0  0
 14 15  2  0  0  0  0
 14 16  1  0  0  0  0
 16 17  1  0  0  0  0
 16 32  1  0  0  0  0
 17 18  2  0  0  0  0
 17 20  1  0  0  0  0
 18 19  1  0  0  0  0
 18 23  1  0  0  0  0
 19 33  1  0  0  0  0
 19 34  1  0  0  0  0
 19 35  1  0  0  0  0
 20 21  2  0  0  0  0
 20 36  1  0  0  0  0
 21 22  1  0  0  0  0
 22 23  2  0  0  0  0
 22 37  1  0  0  0  0
 23 38  1  0  0  0  0
M  END
> <compound_name>
WIL-MOD-03b86a88-6

> <provenance>
{"isomeric_smiles": "Cc1ccncc1NC(=O)Cc2cc(cc(c2)Cl)NS(=O)(=O)N", "inchi": "InChI=1S/C14H15ClN4O3S/c1-9-2-3-17-8-13(9)18-14(20)6-10-4-11(15)7-12(5-10)19-23(16,21)22/h2-5,7-8,19H,6H2,1H3,(H,18,20)(H2,16,21,22)", "inchi_key": "NLTIJDKXVUTASZ-UHFFFAOYSA-N", "fixed_inchi": "InChI=1/C14H15ClN4O3S/c1-9-2-3-17-8-13(9)18-14(20)6-10-4-11(15)7-12(5-10)19-23(16,21)22/h2-5,7-8,19H,6H2,1H3,(H,18,20)(H2,16,21,22)/f/h18H,16H2", "fixed_inchikey": "NLTIJDKXVUTASZ-MZSCVVMKNA-N"}

> <data_format>
sdf

$$$$
