LIG(A-307)
  -OEChem-06042511433D

 61 66  0     1  0  0  0  0  0999 V2000
    9.0220    7.1216   22.5292 N   0  0  0  0  0  0  0  0  0  0  0  0
    8.3361    6.2175   22.6279 C   0  0  0  0  0  0  0  0  0  0  0  0
    7.4655    5.0351   22.6933 C   0  0  0  0  0  0  0  0  0  0  0  0
    6.1221    5.2006   23.3755 C   0  0  0  0  0  0  0  0  0  0  0  0
    6.1815    5.1368   21.8942 C   0  0  0  0  0  0  0  0  0  0  0  0
    8.2277    3.7169   22.8045 C   0  0  0  0  0  0  0  0  0  0  0  0
    8.5196    2.9713   24.3998 S   0  0  0  0  0  0  0  0  0  0  0  0
    7.2906    2.4097   24.8604 O   0  0  0  0  0  0  0  0  0  0  0  0
    9.2039    3.9188   25.2203 O   0  0  0  0  0  0  0  0  0  0  0  0
    9.5449    1.7314   24.1363 N   0  0  2  0  0  0  0  0  0  0  0  0
    9.0769    0.3419   24.0226 C   0  0  0  0  0  0  0  0  0  0  0  0
   10.9772    1.8338   24.4484 C   0  0  0  0  0  0  0  0  0  0  0  0
   11.8021    0.9646   23.5198 C   0  0  0  0  0  0  0  0  0  0  0  0
   11.2276   -0.0724   22.7608 C   0  0  0  0  0  0  0  0  0  0  0  0
   12.0416   -0.8682   21.9566 C   0  0  0  0  0  0  0  0  0  0  0  0
   13.3922   -0.5977   21.8736 C   0  0  0  0  0  0  0  0  0  0  0  0
   14.3728   -1.5354   20.7786 Cl  0  0  0  0  0  0  0  0  0  0  0  0
   13.9716    0.4175   22.6004 C   0  0  0  0  0  0  0  0  0  0  0  0
   13.1755    1.1891   23.4275 C   0  0  0  0  0  0  0  0  0  0  0  0
    9.7261   -0.2792   22.7613 C   0  0  1  0  0  0  0  0  0  0  0  0
    9.2409   -1.7267   22.4542 C   0  0  1  0  0  0  0  0  0  0  0  0
    9.2392   -2.6925   23.6354 C   0  0  0  0  0  0  0  0  0  0  0  0
    9.1263    0.4561   21.5511 C   0  0  0  0  0  0  0  0  0  0  0  0
    9.5424    1.4847   21.0581 O   0  0  0  0  0  0  0  0  0  0  0  0
    8.0267   -0.2365   21.1360 N   0  0  0  0  0  0  0  0  0  0  0  0
    7.8522   -1.4987   21.8638 C   0  0  0  0  0  0  0  0  0  0  0  0
    7.1313    0.1666   20.0882 C   0  0  0  0  0  0  0  0  0  0  0  0
    5.9550    0.9399   20.3454 C   0  0  0  0  0  0  0  0  0  0  0  0
    5.5242    1.3294   21.6425 C   0  0  0  0  0  0  0  0  0  0  0  0
    4.4019    2.0900   21.8156 C   0  0  0  0  0  0  0  0  0  0  0  0
    3.6575    2.5110   20.7199 C   0  0  0  0  0  0  0  0  0  0  0  0
    4.0274    2.1645   19.4521 C   0  0  0  0  0  0  0  0  0  0  0  0
    5.1796    1.3681   19.2288 C   0  0  0  0  0  0  0  0  0  0  0  0
    5.6184    0.9846   17.9317 C   0  0  0  0  0  0  0  0  0  0  0  0
    6.7087    0.2634   17.6968 N   0  0  0  0  0  0  0  0  0  0  0  0
    7.4302   -0.1254   18.7587 C   0  0  0  0  0  0  0  0  0  0  0  0
    5.6889    4.3639   23.9432 H   0  0  0  0  0  0  0  0  0  0  0  0
    5.8736    6.1493   23.8737 H   0  0  0  0  0  0  0  0  0  0  0  0
    5.7922    4.2529   21.3676 H   0  0  0  0  0  0  0  0  0  0  0  0
    5.9769    6.0384   21.2981 H   0  0  0  0  0  0  0  0  0  0  0  0
    7.6700    2.9791   22.2091 H   0  0  0  0  0  0  0  0  0  0  0  0
    9.2151    3.8843   22.3495 H   0  0  0  0  0  0  0  0  0  0  0  0
    9.3759   -0.2270   24.9152 H   0  0  0  0  0  0  0  0  0  0  0  0
    7.9813    0.3237   23.9261 H   0  0  0  0  0  0  0  0  0  0  0  0
   11.2951    2.8809   24.3370 H   0  0  0  0  0  0  0  0  0  0  0  0
   11.1428    1.5087   25.4861 H   0  0  0  0  0  0  0  0  0  0  0  0
   11.6177   -1.6920   21.4016 H   0  0  0  0  0  0  0  0  0  0  0  0
   15.0320    0.6087   22.5261 H   0  0  0  0  0  0  0  0  0  0  0  0
   13.6249    1.9785   24.0116 H   0  0  0  0  0  0  0  0  0  0  0  0
    9.8880   -2.1422   21.6677 H   0  0  0  0  0  0  0  0  0  0  0  0
    8.8803   -3.6779   23.3035 H   0  0  0  0  0  0  0  0  0  0  0  0
   10.2608   -2.7889   24.0316 H   0  0  0  0  0  0  0  0  0  0  0  0
    8.5753   -2.3070   24.4233 H   0  0  0  0  0  0  0  0  0  0  0  0
    7.0939   -1.4013   22.6546 H   0  0  0  0  0  0  0  0  0  0  0  0
    7.5695   -2.3155   21.1833 H   0  0  0  0  0  0  0  0  0  0  0  0
    6.0935    1.0191   22.5062 H   0  0  0  0  0  0  0  0  0  0  0  0
    4.0908    2.3662   22.8123 H   0  0  0  0  0  0  0  0  0  0  0  0
    2.7776    3.1184   20.8729 H   0  0  0  0  0  0  0  0  0  0  0  0
    3.4374    2.4997   18.6119 H   0  0  0  0  0  0  0  0  0  0  0  0
    5.0278    1.2996   17.0841 H   0  0  0  0  0  0  0  0  0  0  0  0
    8.3158   -0.7133   18.5676 H   0  0  0  0  0  0  0  0  0  0  0  0
  1  2  3  0  0  0  0
  2  3  1  0  0  0  0
  3  4  1  0  0  0  0
  3  5  1  0  0  0  0
  3  6  1  0  0  0  0
  4  5  1  0  0  0  0
  4 37  1  0  0  0  0
  4 38  1  0  0  0  0
  5 39  1  0  0  0  0
  5 40  1  0  0  0  0
  6  7  1  0  0  0  0
  6 41  1  0  0  0  0
  6 42  1  0  0  0  0
  7  8  2  0  0  0  0
  7  9  2  0  0  0  0
  7 10  1  0  0  0  0
 10 11  1  0  0  0  0
 10 12  1  0  0  0  0
 11 20  1  0  0  0  0
 11 43  1  0  0  0  0
 11 44  1  0  0  0  0
 12 13  1  0  0  0  0
 12 45  1  0  0  0  0
 12 46  1  0  0  0  0
 13 14  2  0  0  0  0
 13 19  1  0  0  0  0
 14 15  1  0  0  0  0
 14 20  1  0  0  0  0
 15 16  2  0  0  0  0
 15 47  1  0  0  0  0
 16 17  1  0  0  0  0
 16 18  1  0  0  0  0
 18 19  2  0  0  0  0
 18 48  1  0  0  0  0
 19 49  1  0  0  0  0
 20 21  1  0  0  0  0
 20 23  1  0  0  0  0
 21 22  1  0  0  0  0
 21 26  1  0  0  0  0
 21 50  1  0  0  0  0
 22 51  1  0  0  0  0
 22 52  1  0  0  0  0
 22 53  1  0  0  0  0
 23 24  2  0  0  0  0
 23 25  1  0  0  0  0
 25 26  1  0  0  0  0
 25 27  1  0  0  0  0
 26 54  1  0  0  0  0
 26 55  1  0  0  0  0
 27 28  2  0  0  0  0
 27 36  1  0  0  0  0
 28 29  1  0  0  0  0
 28 33  1  0  0  0  0
 29 30  2  0  0  0  0
 29 56  1  0  0  0  0
 30 31  1  0  0  0  0
 30 57  1  0  0  0  0
 31 32  2  0  0  0  0
 31 58  1  0  0  0  0
 32 33  1  0  0  0  0
 32 59  1  0  0  0  0
 33 34  2  0  0  0  0
 34 35  1  0  0  0  0
 34 60  1  0  0  0  0
 35 36  2  0  0  0  0
 36 61  1  0  0  0  0
M  END
> <compound_name>
MAT-POS-50a80394-1

> <provenance>
{"isomeric_smiles": "C[C@H]1CN(C(=O)[C@@]12C[N@](Cc3c2cc(cc3)Cl)S(=O)(=O)CC4(CC4)C#N)c5cncc6c5cccc6", "inchi": "InChI=1S/C27H25ClN4O3S/c1-18-13-32(24-12-30-11-19-4-2-3-5-22(19)24)25(33)27(18)16-31(14-20-6-7-21(28)10-23(20)27)36(34,35)17-26(15-29)8-9-26/h2-7,10-12,18H,8-9,13-14,16-17H2,1H3/t18-,27-/m0/s1", "inchi_key": "WAAAIQKYRCBKNL-MYUZEXMDSA-N", "fixed_inchi": "InChI=1/C27H25ClN4O3S/c1-18-13-32(24-12-30-11-19-4-2-3-5-22(19)24)25(33)27(18)16-31(14-20-6-7-21(28)10-23(20)27)36(34,35)17-26(15-29)8-9-26/h2-7,10-12,18H,8-9,13-14,16-17H2,1H3/t18-,27-/m0/s1", "fixed_inchikey": "WAAAIQKYRCBKNL-MYUZEXMDNA-N"}

> <data_format>
sdf

$$$$
