LIG(A-306)
  -OEChem-06042511413D

 38 40  0     0  0  0  0  0  0999 V2000
   14.1586   -1.5587   21.4284 Cl  0  0  0  0  0  0  0  0  0  0  0  0
   12.8755   -0.8770   22.3895 C   0  0  0  0  0  0  0  0  0  0  0  0
   13.1694    0.1155   23.3036 C   0  0  0  0  0  0  0  0  0  0  0  0
   12.1321    0.6617   24.0446 C   0  0  0  0  0  0  0  0  0  0  0  0
   10.8279    0.2364   23.8396 C   0  0  0  0  0  0  0  0  0  0  0  0
   11.5863   -1.3234   22.1895 C   0  0  0  0  0  0  0  0  0  0  0  0
   10.5390   -0.7422   22.8965 C   0  0  0  0  0  0  0  0  0  0  0  0
    9.1117   -1.0877   22.5495 C   0  0  0  0  0  0  0  0  0  0  0  0
    8.5347   -0.1054   21.5494 C   0  0  0  0  0  0  0  0  0  0  0  0
    9.1953    0.8318   21.0982 O   0  0  0  0  0  0  0  0  0  0  0  0
    7.2375   -0.2959   21.2619 N   0  0  0  0  0  0  0  0  0  0  0  0
    6.5383   -0.0128   20.0771 C   0  0  0  0  0  0  0  0  0  0  0  0
    7.0701   -0.0610   18.7887 C   0  0  0  0  0  0  0  0  0  0  0  0
    6.5201    0.4922   17.6993 N   0  0  0  0  0  0  0  0  0  0  0  0
    5.3962    1.1735   17.8632 C   0  0  0  0  0  0  0  0  0  0  0  0
    5.3165    0.7075   20.2461 C   0  0  0  0  0  0  0  0  0  0  0  0
    4.7494    1.3466   19.1105 C   0  0  0  0  0  0  0  0  0  0  0  0
    3.6256    2.1879   19.2922 C   0  0  0  0  0  0  0  0  0  0  0  0
    3.0808    2.3710   20.5294 C   0  0  0  0  0  0  0  0  0  0  0  0
    4.7097    0.9096   21.5113 C   0  0  0  0  0  0  0  0  0  0  0  0
    3.6029    1.7128   21.6490 C   0  0  0  0  0  0  0  0  0  0  0  0
    2.9051    1.7601   22.9816 C   0  0  0  0  0  0  0  0  0  0  0  0
    3.4861    1.3317   23.9908 O   0  0  0  0  0  0  0  0  0  0  0  0
    1.6542    2.2061   23.0121 N   0  0  0  0  0  0  0  0  0  0  0  0
   14.1846    0.4587   23.4383 H   0  0  0  0  0  0  0  0  0  0  0  0
   12.3407    1.4209   24.7840 H   0  0  0  0  0  0  0  0  0  0  0  0
   10.0275    0.6711   24.4199 H   0  0  0  0  0  0  0  0  0  0  0  0
   11.3908   -2.1202   21.4873 H   0  0  0  0  0  0  0  0  0  0  0  0
    9.0829   -2.0985   22.1164 H   0  0  0  0  0  0  0  0  0  0  0  0
    8.5043   -1.0641   23.4662 H   0  0  0  0  0  0  0  0  0  0  0  0
    6.6904   -0.6967   21.9967 H   0  0  0  0  0  0  0  0  0  0  0  0
    8.0035   -0.5884   18.6581 H   0  0  0  0  0  0  0  0  0  0  0  0
    4.9455    1.6247   16.9917 H   0  0  0  0  0  0  0  0  0  0  0  0
    3.1938    2.6916   18.4400 H   0  0  0  0  0  0  0  0  0  0  0  0
    2.2353    3.0326   20.6466 H   0  0  0  0  0  0  0  0  0  0  0  0
    5.1244    0.4239   22.3822 H   0  0  0  0  0  0  0  0  0  0  0  0
    1.1437    2.2050   23.8720 H   0  0  0  0  0  0  0  0  0  0  0  0
    1.2230    2.5430   22.1751 H   0  0  0  0  0  0  0  0  0  0  0  0
  1  2  1  0  0  0  0
  2  3  2  0  0  0  0
  2  6  1  0  0  0  0
  3  4  1  0  0  0  0
  3 25  1  0  0  0  0
  4  5  2  0  0  0  0
  4 26  1  0  0  0  0
  5  7  1  0  0  0  0
  5 27  1  0  0  0  0
  6  7  2  0  0  0  0
  6 28  1  0  0  0  0
  7  8  1  0  0  0  0
  8  9  1  0  0  0  0
  8 29  1  0  0  0  0
  8 30  1  0  0  0  0
  9 10  2  0  0  0  0
  9 11  1  0  0  0  0
 11 12  1  0  0  0  0
 11 31  1  0  0  0  0
 12 13  2  0  0  0  0
 12 16  1  0  0  0  0
 13 14  1  0  0  0  0
 13 32  1  0  0  0  0
 14 15  2  0  0  0  0
 15 17  1  0  0  0  0
 15 33  1  0  0  0  0
 16 17  2  0  0  0  0
 16 20  1  0  0  0  0
 17 18  1  0  0  0  0
 18 19  2  0  0  0  0
 18 34  1  0  0  0  0
 19 21  1  0  0  0  0
 19 35  1  0  0  0  0
 20 21  2  0  0  0  0
 20 36  1  0  0  0  0
 21 22  1  0  0  0  0
 22 23  2  0  0  0  0
 22 24  1  0  0  0  0
 24 37  1  0  0  0  0
 24 38  1  0  0  0  0
M  END
> <compound_name>
MAT-POS-90fd5f68-19

> <provenance>
{"isomeric_smiles": "c1cc(cc(c1)Cl)CC(=O)Nc2cncc3c2cc(cc3)C(=O)N", "inchi": "InChI=1S/C18H14ClN3O2/c19-14-3-1-2-11(6-14)7-17(23)22-16-10-21-9-13-5-4-12(18(20)24)8-15(13)16/h1-6,8-10H,7H2,(H2,20,24)(H,22,23)", "inchi_key": "IODVSEDZYFGXPU-UHFFFAOYSA-N", "fixed_inchi": "InChI=1/C18H14ClN3O2/c19-14-3-1-2-11(6-14)7-17(23)22-16-10-21-9-13-5-4-12(18(20)24)8-15(13)16/h1-6,8-10H,7H2,(H2,20,24)(H,22,23)/f/h22H,20H2", "fixed_inchikey": "IODVSEDZYFGXPU-JQHVODBVNA-N"}

> <data_format>
sdf

$$$$
