LIG(A-305)
  -OEChem-06042511393D

 38 40  0     0  0  0  0  0  0999 V2000
   13.8854   -1.9521   21.2187 Cl  0  0  0  0  0  0  0  0  0  0  0  0
   12.7144   -1.1621   22.2347 C   0  0  0  0  0  0  0  0  0  0  0  0
   13.1283   -0.1772   23.1088 C   0  0  0  0  0  0  0  0  0  0  0  0
   12.1793    0.4497   23.9018 C   0  0  0  0  0  0  0  0  0  0  0  0
   10.8413    0.1007   23.7958 C   0  0  0  0  0  0  0  0  0  0  0  0
   11.3884   -1.5231   22.1247 C   0  0  0  0  0  0  0  0  0  0  0  0
   10.4293   -0.8692   22.8907 C   0  0  0  0  0  0  0  0  0  0  0  0
    8.9623   -1.1102   22.6256 C   0  0  0  0  0  0  0  0  0  0  0  0
    8.5224   -0.3331   21.4007 C   0  0  0  0  0  0  0  0  0  0  0  0
    9.2904    0.4020   20.7917 O   0  0  0  0  0  0  0  0  0  0  0  0
    7.2114   -0.4100   21.1276 N   0  0  0  0  0  0  0  0  0  0  0  0
    6.5234   -0.0529   19.9546 C   0  0  0  0  0  0  0  0  0  0  0  0
    7.0645   -0.0669   18.6716 C   0  0  0  0  0  0  0  0  0  0  0  0
    6.5125    0.5092   17.5966 N   0  0  0  0  0  0  0  0  0  0  0  0
    5.3665    1.1582   17.7697 C   0  0  0  0  0  0  0  0  0  0  0  0
    5.2934    0.6470   20.1406 C   0  0  0  0  0  0  0  0  0  0  0  0
    4.7085    1.2861   19.0136 C   0  0  0  0  0  0  0  0  0  0  0  0
    3.5415    2.0641   19.1997 C   0  0  0  0  0  0  0  0  0  0  0  0
    2.9764    2.1910   20.4337 C   0  0  0  0  0  0  0  0  0  0  0  0
    4.6864    0.8130   21.4066 C   0  0  0  0  0  0  0  0  0  0  0  0
    3.5504    1.5679   21.5346 C   0  0  0  0  0  0  0  0  0  0  0  0
    2.8794    1.7589   22.7146 O   0  0  0  0  0  0  0  0  0  0  0  0
    3.3913    1.1358   23.8946 C   0  0  0  0  0  0  0  0  0  0  0  0
   14.1702    0.0995   23.1737 H   0  0  0  0  0  0  0  0  0  0  0  0
   12.4830    1.2120   24.6041 H   0  0  0  0  0  0  0  0  0  0  0  0
   10.1111    0.5888   24.4242 H   0  0  0  0  0  0  0  0  0  0  0  0
   11.0955   -2.3107   21.4462 H   0  0  0  0  0  0  0  0  0  0  0  0
    8.7944   -2.1838   22.4555 H   0  0  0  0  0  0  0  0  0  0  0  0
    8.3760   -0.7807   23.4960 H   0  0  0  0  0  0  0  0  0  0  0  0
    6.6414   -0.7737   21.8644 H   0  0  0  0  0  0  0  0  0  0  0  0
    8.0030   -0.5828   18.5329 H   0  0  0  0  0  0  0  0  0  0  0  0
    4.9091    1.6168   16.9055 H   0  0  0  0  0  0  0  0  0  0  0  0
    3.0929    2.5635   18.3537 H   0  0  0  0  0  0  0  0  0  0  0  0
    2.0785    2.7786   20.5560 H   0  0  0  0  0  0  0  0  0  0  0  0
    5.1201    0.3425   22.2766 H   0  0  0  0  0  0  0  0  0  0  0  0
    2.7459    1.3835   24.7502 H   0  0  0  0  0  0  0  0  0  0  0  0
    3.4110    0.0450   23.7540 H   0  0  0  0  0  0  0  0  0  0  0  0
    4.4115    1.4990   24.0877 H   0  0  0  0  0  0  0  0  0  0  0  0
  1  2  1  0  0  0  0
  2  3  2  0  0  0  0
  2  6  1  0  0  0  0
  3  4  1  0  0  0  0
  3 24  1  0  0  0  0
  4  5  2  0  0  0  0
  4 25  1  0  0  0  0
  5  7  1  0  0  0  0
  5 26  1  0  0  0  0
  6  7  2  0  0  0  0
  6 27  1  0  0  0  0
  7  8  1  0  0  0  0
  8  9  1  0  0  0  0
  8 28  1  0  0  0  0
  8 29  1  0  0  0  0
  9 10  2  0  0  0  0
  9 11  1  0  0  0  0
 11 12  1  0  0  0  0
 11 30  1  0  0  0  0
 12 13  2  0  0  0  0
 12 16  1  0  0  0  0
 13 14  1  0  0  0  0
 13 31  1  0  0  0  0
 14 15  2  0  0  0  0
 15 17  1  0  0  0  0
 15 32  1  0  0  0  0
 16 17  2  0  0  0  0
 16 20  1  0  0  0  0
 17 18  1  0  0  0  0
 18 19  2  0  0  0  0
 18 33  1  0  0  0  0
 19 21  1  0  0  0  0
 19 34  1  0  0  0  0
 20 21  2  0  0  0  0
 20 35  1  0  0  0  0
 21 22  1  0  0  0  0
 22 23  1  0  0  0  0
 23 36  1  0  0  0  0
 23 37  1  0  0  0  0
 23 38  1  0  0  0  0
M  END
> <compound_name>
EDJ-MED-00c1612e-1

> <provenance>
{"isomeric_smiles": "COc1ccc2cncc(c2c1)NC(=O)Cc3cccc(c3)Cl", "inchi": "InChI=1S/C18H15ClN2O2/c1-23-15-6-5-13-10-20-11-17(16(13)9-15)21-18(22)8-12-3-2-4-14(19)7-12/h2-7,9-11H,8H2,1H3,(H,21,22)", "inchi_key": "RPTKBNCKDMLWOT-UHFFFAOYSA-N", "fixed_inchi": "InChI=1/C18H15ClN2O2/c1-23-15-6-5-13-10-20-11-17(16(13)9-15)21-18(22)8-12-3-2-4-14(19)7-12/h2-7,9-11H,8H2,1H3,(H,21,22)/f/h21H", "fixed_inchikey": "RPTKBNCKDMLWOT-PKSOQXRJNA-N"}

> <data_format>
sdf

$$$$
