LIG(A-306)
  -OEChem-06042511433D

 74 79  0     1  0  0  0  0  0999 V2000
    9.5585    1.4158   21.2009 O   0  0  0  0  0  0  0  0  0  0  0  0
    9.1500    0.3866   21.7000 C   0  0  0  0  0  0  0  0  0  0  0  0
    9.7502   -0.3283   22.9166 C   0  0  1  0  0  0  0  0  0  0  0  0
   11.2682   -0.1164   22.8988 C   0  0  0  0  0  0  0  0  0  0  0  0
   12.0664   -0.8858   22.0523 C   0  0  0  0  0  0  0  0  0  0  0  0
   13.4082   -0.5810   21.9215 C   0  0  0  0  0  0  0  0  0  0  0  0
   14.3852   -1.5248   20.8281 Cl  0  0  0  0  0  0  0  0  0  0  0  0
   13.9879    0.4472   22.6292 C   0  0  0  0  0  0  0  0  0  0  0  0
   13.2098    1.1806   23.5047 C   0  0  0  0  0  0  0  0  0  0  0  0
   11.8489    0.9169   23.6525 C   0  0  0  0  0  0  0  0  0  0  0  0
   11.0429    1.7495   24.6299 C   0  0  0  0  0  0  0  0  0  0  0  0
    9.6066    1.6800   24.3324 N   0  0  3  0  0  0  0  0  0  0  0  0
    8.6427    2.9823   24.4991 S   0  0  0  0  0  0  0  0  0  0  0  0
    9.3545    3.9366   25.2899 O   0  0  0  0  0  0  0  0  0  0  0  0
    8.4342    3.6466   22.8592 C   0  0  0  0  0  0  0  0  0  0  0  0
    7.5690    4.8812   22.6430 C   0  0  0  0  0  0  0  0  0  0  0  0
    8.3650    6.1122   22.6502 C   0  0  0  0  0  0  0  0  0  0  0  0
    9.0220    7.0422   22.6370 N   0  0  0  0  0  0  0  0  0  0  0  0
    6.1926    4.9583   23.2672 C   0  0  0  0  0  0  0  0  0  0  0  0
    6.3151    4.8148   21.7973 C   0  0  0  0  0  0  0  0  0  0  0  0
    7.3712    2.5121   24.9522 O   0  0  0  0  0  0  0  0  0  0  0  0
    9.1114    0.3008   24.1811 C   0  0  0  0  0  0  0  0  0  0  0  0
    9.2850   -1.7847   22.6854 C   0  0  0  0  0  0  0  0  0  0  0  0
    7.9602   -1.6389   21.9445 C   0  0  0  0  0  0  0  0  0  0  0  0
    8.0976   -0.3511   21.2452 N   0  0  0  0  0  0  0  0  0  0  0  0
    7.2245    0.0351   20.1714 C   0  0  0  0  0  0  0  0  0  0  0  0
    7.6383   -0.1691   18.8593 C   0  0  0  0  0  0  0  0  0  0  0  0
    6.9852    0.2481   17.7643 N   0  0  0  0  0  0  0  0  0  0  0  0
    5.8444    0.8994   17.9453 C   0  0  0  0  0  0  0  0  0  0  0  0
    5.9877    0.7224   20.3695 C   0  0  0  0  0  0  0  0  0  0  0  0
    5.2796    1.1715   19.2164 C   0  0  0  0  0  0  0  0  0  0  0  0
    4.0748    1.8958   19.3903 C   0  0  0  0  0  0  0  0  0  0  0  0
    3.5920    2.1589   20.6384 C   0  0  0  0  0  0  0  0  0  0  0  0
    5.4560    1.0146   21.6475 C   0  0  0  0  0  0  0  0  0  0  0  0
    4.2831    1.7198   21.7654 C   0  0  0  0  0  0  0  0  0  0  0  0
    3.7053    2.0498   22.9705 O   0  0  0  0  0  0  0  0  0  0  0  0
    4.4644    1.8558   24.1810 C   0  0  0  0  0  0  0  0  0  0  0  0
    3.5166    1.8548   25.3600 C   0  0  0  0  0  0  0  0  0  0  0  0
    3.5313    3.1030   26.1299 N   0  3  0  0  0  0  0  0  0  0  0  0
    3.9486    2.8503   27.5059 C   0  0  0  0  0  0  0  0  0  0  0  0
    2.2203    3.7470   26.1151 C   0  0  0  0  0  0  0  0  0  0  0  0
   11.6396   -1.7125   21.5038 H   0  0  0  0  0  0  0  0  0  0  0  0
   15.0354    0.6775   22.5023 H   0  0  0  0  0  0  0  0  0  0  0  0
   13.6634    1.9712   24.0840 H   0  0  0  0  0  0  0  0  0  0  0  0
   11.2162    1.3735   25.6489 H   0  0  0  0  0  0  0  0  0  0  0  0
   11.3720    2.7971   24.5646 H   0  0  0  0  0  0  0  0  0  0  0  0
    9.4391    3.8936   22.4863 H   0  0  0  0  0  0  0  0  0  0  0  0
    8.0018    2.8439   22.2439 H   0  0  0  0  0  0  0  0  0  0  0  0
    5.8165    4.1187   23.8703 H   0  0  0  0  0  0  0  0  0  0  0  0
    5.8383    5.9066   23.6977 H   0  0  0  0  0  0  0  0  0  0  0  0
    6.0300    3.8691   21.3132 H   0  0  0  0  0  0  0  0  0  0  0  0
    6.0517    5.6570   21.1406 H   0  0  0  0  0  0  0  0  0  0  0  0
    9.3882   -0.2898   25.0670 H   0  0  0  0  0  0  0  0  0  0  0  0
    8.0166    0.3114   24.0750 H   0  0  0  0  0  0  0  0  0  0  0  0
   10.0154   -2.3357   22.0748 H   0  0  0  0  0  0  0  0  0  0  0  0
    9.1412   -2.3054   23.6436 H   0  0  0  0  0  0  0  0  0  0  0  0
    7.8175   -2.4618   21.2286 H   0  0  0  0  0  0  0  0  0  0  0  0
    7.1160   -1.6156   22.6493 H   0  0  0  0  0  0  0  0  0  0  0  0
    8.5620   -0.7082   18.7096 H   0  0  0  0  0  0  0  0  0  0  0  0
    5.3130    1.2437   17.0703 H   0  0  0  0  0  0  0  0  0  0  0  0
    3.5319    2.2440   18.5241 H   0  0  0  0  0  0  0  0  0  0  0  0
    2.6702    2.7099   20.7535 H   0  0  0  0  0  0  0  0  0  0  0  0
    5.9745    0.6816   22.5344 H   0  0  0  0  0  0  0  0  0  0  0  0
    4.9955    0.8936   24.1335 H   0  0  0  0  0  0  0  0  0  0  0  0
    5.1934    2.6717   24.2943 H   0  0  0  0  0  0  0  0  0  0  0  0
    2.4957    1.6903   24.9846 H   0  0  0  0  0  0  0  0  0  0  0  0
    3.7978    1.0297   26.0309 H   0  0  0  0  0  0  0  0  0  0  0  0
    4.1924    3.7239   25.7087 H   0  0  0  0  0  0  0  0  0  0  0  0
    3.9539    3.7960   28.0676 H   0  0  0  0  0  0  0  0  0  0  0  0
    3.2470    2.1472   27.9784 H   0  0  0  0  0  0  0  0  0  0  0  0
    4.9596    2.4168   27.5085 H   0  0  0  0  0  0  0  0  0  0  0  0
    2.2621    4.6783   26.6991 H   0  0  0  0  0  0  0  0  0  0  0  0
    1.9368    3.9774   25.0775 H   0  0  0  0  0  0  0  0  0  0  0  0
    1.4744    3.0701   26.5573 H   0  0  0  0  0  0  0  0  0  0  0  0
  1  2  2  0  0  0  0
  2  3  1  0  0  0  0
  2 25  1  0  0  0  0
  3  4  1  0  0  0  0
  3 22  1  0  0  0  0
  3 23  1  0  0  0  0
  4  5  2  0  0  0  0
  4 10  1  0  0  0  0
  5  6  1  0  0  0  0
  5 42  1  0  0  0  0
  6  7  1  0  0  0  0
  6  8  2  0  0  0  0
  8  9  1  0  0  0  0
  8 43  1  0  0  0  0
  9 10  2  0  0  0  0
  9 44  1  0  0  0  0
 10 11  1  0  0  0  0
 11 12  1  0  0  0  0
 11 45  1  0  0  0  0
 11 46  1  0  0  0  0
 12 13  1  0  0  0  0
 12 22  1  0  0  0  0
 13 14  2  0  0  0  0
 13 15  1  0  0  0  0
 13 21  2  0  0  0  0
 15 16  1  0  0  0  0
 15 47  1  0  0  0  0
 15 48  1  0  0  0  0
 16 17  1  0  0  0  0
 16 19  1  0  0  0  0
 16 20  1  0  0  0  0
 17 18  3  0  0  0  0
 19 20  1  0  0  0  0
 19 49  1  0  0  0  0
 19 50  1  0  0  0  0
 20 51  1  0  0  0  0
 20 52  1  0  0  0  0
 22 53  1  0  0  0  0
 22 54  1  0  0  0  0
 23 24  1  0  0  0  0
 23 55  1  0  0  0  0
 23 56  1  0  0  0  0
 24 25  1  0  0  0  0
 24 57  1  0  0  0  0
 24 58  1  0  0  0  0
 25 26  1  0  0  0  0
 26 27  2  0  0  0  0
 26 30  1  0  0  0  0
 27 28  1  0  0  0  0
 27 59  1  0  0  0  0
 28 29  2  0  0  0  0
 29 31  1  0  0  0  0
 29 60  1  0  0  0  0
 30 31  2  0  0  0  0
 30 34  1  0  0  0  0
 31 32  1  0  0  0  0
 32 33  2  0  0  0  0
 32 61  1  0  0  0  0
 33 35  1  0  0  0  0
 33 62  1  0  0  0  0
 34 35  2  0  0  0  0
 34 63  1  0  0  0  0
 35 36  1  0  0  0  0
 36 37  1  0  0  0  0
 37 38  1  0  0  0  0
 37 64  1  0  0  0  0
 37 65  1  0  0  0  0
 38 39  1  0  0  0  0
 38 66  1  0  0  0  0
 38 67  1  0  0  0  0
 39 40  1  0  0  0  0
 39 41  1  0  0  0  0
 39 68  1  0  0  0  0
 40 69  1  0  0  0  0
 40 70  1  0  0  0  0
 40 71  1  0  0  0  0
 41 72  1  0  0  0  0
 41 73  1  0  0  0  0
 41 74  1  0  0  0  0
M  CHG  1  39   1
M  END
> <compound_name>
MAT-POS-853c0ffa-9

> <provenance>
{"isomeric_smiles": "C[NH+](C)CCOc1ccc2cncc(c2c1)N3CC[C@@]4(C3=O)CN(Cc5c4cc(cc5)Cl)S(=O)(=O)CC6(CC6)C#N", "inchi": "InChI=1S/C30H32ClN5O4S/c1-34(2)11-12-40-24-6-4-21-15-33-16-27(25(21)14-24)36-10-9-30(28(36)37)19-35(17-22-3-5-23(31)13-26(22)30)41(38,39)20-29(18-32)7-8-29/h3-6,13-16H,7-12,17,19-20H2,1-2H3/p+1/t30-/m1/s1", "inchi_key": "FLBSSPVVUCLCOS-SSEXGKCCSA-O", "fixed_inchi": "InChI=1/C30H32ClN5O4S/c1-34(2)11-12-40-24-6-4-21-15-33-16-27(25(21)14-24)36-10-9-30(28(36)37)19-35(17-22-3-5-23(31)13-26(22)30)41(38,39)20-29(18-32)7-8-29/h3-6,13-16H,7-12,17,19-20H2,1-2H3/p+1/t30-/m1/s1/fC30H33ClN5O4S/h34H/q+1", "fixed_inchikey": "FLBSSPVVUCLCOS-LETAFBJTNA-O"}

> <data_format>
sdf

$$$$
