LIG(A-306)
  -OEChem-06042511393D

 69 73  0     1  0  0  0  0  0999 V2000
    9.2988    1.2663   20.9363 O   0  0  0  0  0  0  0  0  0  0  0  0
    8.8473    0.2592   21.4654 C   0  0  0  0  0  0  0  0  0  0  0  0
    7.6690   -0.2786   21.0624 N   0  0  0  0  0  0  0  0  0  0  0  0
    6.8490    0.1656   19.9994 C   0  0  0  0  0  0  0  0  0  0  0  0
    5.6912    0.9521   20.3002 C   0  0  0  0  0  0  0  0  0  0  0  0
    5.2784    1.2792   21.6180 C   0  0  0  0  0  0  0  0  0  0  0  0
    4.1686    2.0465   21.8378 C   0  0  0  0  0  0  0  0  0  0  0  0
    3.4196    2.5307   20.7737 C   0  0  0  0  0  0  0  0  0  0  0  0
    3.7764    2.2456   19.4868 C   0  0  0  0  0  0  0  0  0  0  0  0
    4.9172    1.4512   19.2131 C   0  0  0  0  0  0  0  0  0  0  0  0
    5.3419    1.1350   17.9032 C   0  0  0  0  0  0  0  0  0  0  0  0
    6.4107    0.4056   17.6224 N   0  0  0  0  0  0  0  0  0  0  0  0
    7.1277   -0.0626   18.6535 C   0  0  0  0  0  0  0  0  0  0  0  0
    9.6035   -0.4338   22.6308 C   0  0  1  0  0  0  0  0  0  0  0  0
   11.0924   -0.0747   22.6388 C   0  0  0  0  0  0  0  0  0  0  0  0
   11.9958   -0.8419   21.9073 C   0  0  0  0  0  0  0  0  0  0  0  0
   13.3087   -0.4300   21.7974 C   0  0  0  0  0  0  0  0  0  0  0  0
   14.3627   -1.2688   20.6918 Cl  0  0  0  0  0  0  0  0  0  0  0  0
   13.7762    0.6941   22.4451 C   0  0  0  0  0  0  0  0  0  0  0  0
   12.9059    1.4403   23.2166 C   0  0  0  0  0  0  0  0  0  0  0  0
   11.5790    1.0554   23.3135 C   0  0  0  0  0  0  0  0  0  0  0  0
   10.7927    1.8727   24.0929 O   0  0  0  0  0  0  0  0  0  0  0  0
    9.3697    1.6017   24.1257 C   0  0  0  0  0  0  0  0  0  0  0  0
    9.0247    0.1383   23.9444 C   0  0  0  0  0  0  0  0  0  0  0  0
    9.4735   -1.9789   22.5665 C   0  0  0  0  0  0  0  0  0  0  0  0
    8.2902   -2.5518   23.3136 C   0  0  0  0  0  0  0  0  0  0  0  0
    7.1618   -2.4436   22.8555 O   0  0  0  0  0  0  0  0  0  0  0  0
    8.5303   -3.2208   24.4625 N   0  0  0  0  0  0  0  0  0  0  0  0
    8.0785   -2.7097   25.7661 C   0  0  0  0  0  0  0  0  0  0  0  0
    9.1635   -2.9029   26.8254 C   0  0  0  0  0  0  0  0  0  0  0  0
    9.0984   -4.5788   24.4772 C   0  0  0  0  0  0  0  0  0  0  0  0
   10.1345   -4.7279   25.6015 C   0  0  0  0  0  0  0  0  0  0  0  0
    9.5687   -4.3157   26.8993 N   0  3  0  0  0  0  0  0  0  0  0  0
    8.4571   -5.1801   27.3328 C   0  0  0  0  0  0  0  0  0  0  0  0
    8.4755   -5.5446   28.8074 C   0  0  0  0  0  0  0  0  0  0  0  0
    7.1081   -5.4956   29.4676 C   0  0  0  0  0  0  0  0  0  0  0  0
    6.8416   -4.2186   30.0397 O   0  0  0  0  0  0  0  0  0  0  0  0
    7.3451   -1.0755   21.5723 H   0  0  0  0  0  0  0  0  0  0  0  0
    5.8496    0.9166   22.4598 H   0  0  0  0  0  0  0  0  0  0  0  0
    3.8712    2.2786   22.8498 H   0  0  0  0  0  0  0  0  0  0  0  0
    2.5473    3.1380   20.9654 H   0  0  0  0  0  0  0  0  0  0  0  0
    3.1833    2.6293   18.6698 H   0  0  0  0  0  0  0  0  0  0  0  0
    4.7571    1.5127   17.0776 H   0  0  0  0  0  0  0  0  0  0  0  0
    7.9926   -0.6664   18.4220 H   0  0  0  0  0  0  0  0  0  0  0  0
   11.6709   -1.7539   21.4287 H   0  0  0  0  0  0  0  0  0  0  0  0
   14.8111    0.9880   22.3503 H   0  0  0  0  0  0  0  0  0  0  0  0
   13.2577    2.3170   23.7401 H   0  0  0  0  0  0  0  0  0  0  0  0
    8.9752    1.9337   25.0973 H   0  0  0  0  0  0  0  0  0  0  0  0
    8.8885    2.1745   23.3193 H   0  0  0  0  0  0  0  0  0  0  0  0
    9.4353   -0.4310   24.7913 H   0  0  0  0  0  0  0  0  0  0  0  0
    7.9300    0.0310   23.9268 H   0  0  0  0  0  0  0  0  0  0  0  0
    9.3834   -2.2702   21.5096 H   0  0  0  0  0  0  0  0  0  0  0  0
   10.3893   -2.4165   22.9907 H   0  0  0  0  0  0  0  0  0  0  0  0
    7.8497   -1.6377   25.6744 H   0  0  0  0  0  0  0  0  0  0  0  0
    7.1727   -3.2530   26.0731 H   0  0  0  0  0  0  0  0  0  0  0  0
   10.0380   -2.2892   26.5634 H   0  0  0  0  0  0  0  0  0  0  0  0
    8.7736   -2.5868   27.8042 H   0  0  0  0  0  0  0  0  0  0  0  0
    8.2885   -5.3062   24.6352 H   0  0  0  0  0  0  0  0  0  0  0  0
    9.5851   -4.7760   23.5107 H   0  0  0  0  0  0  0  0  0  0  0  0
   10.4487   -5.7801   25.6640 H   0  0  0  0  0  0  0  0  0  0  0  0
   11.0066   -4.0977   25.3728 H   0  0  0  0  0  0  0  0  0  0  0  0
   10.2944   -4.3884   27.5835 H   0  0  0  0  0  0  0  0  0  0  0  0
    7.5131   -4.6567   27.1208 H   0  0  0  0  0  0  0  0  0  0  0  0
    8.4992   -6.1113   26.7489 H   0  0  0  0  0  0  0  0  0  0  0  0
    8.8727   -6.5655   28.9075 H   0  0  0  0  0  0  0  0  0  0  0  0
    9.1389   -4.8402   29.3307 H   0  0  0  0  0  0  0  0  0  0  0  0
    6.3397   -5.7142   28.7114 H   0  0  0  0  0  0  0  0  0  0  0  0
    7.0685   -6.2564   30.2611 H   0  0  0  0  0  0  0  0  0  0  0  0
    6.7625   -4.3038   30.9826 H   0  0  0  0  0  0  0  0  0  0  0  0
  1  2  2  0  0  0  0
  2  3  1  0  0  0  0
  2 14  1  0  0  0  0
  3  4  1  0  0  0  0
  3 38  1  0  0  0  0
  4  5  2  0  0  0  0
  4 13  1  0  0  0  0
  5  6  1  0  0  0  0
  5 10  1  0  0  0  0
  6  7  2  0  0  0  0
  6 39  1  0  0  0  0
  7  8  1  0  0  0  0
  7 40  1  0  0  0  0
  8  9  2  0  0  0  0
  8 41  1  0  0  0  0
  9 10  1  0  0  0  0
  9 42  1  0  0  0  0
 10 11  2  0  0  0  0
 11 12  1  0  0  0  0
 11 43  1  0  0  0  0
 12 13  2  0  0  0  0
 13 44  1  0  0  0  0
 14 15  1  0  0  0  0
 14 24  1  0  0  0  0
 14 25  1  0  0  0  0
 15 16  2  0  0  0  0
 15 21  1  0  0  0  0
 16 17  1  0  0  0  0
 16 45  1  0  0  0  0
 17 18  1  0  0  0  0
 17 19  2  0  0  0  0
 19 20  1  0  0  0  0
 19 46  1  0  0  0  0
 20 21  2  0  0  0  0
 20 47  1  0  0  0  0
 21 22  1  0  0  0  0
 22 23  1  0  0  0  0
 23 24  1  0  0  0  0
 23 48  1  0  0  0  0
 23 49  1  0  0  0  0
 24 50  1  0  0  0  0
 24 51  1  0  0  0  0
 25 26  1  0  0  0  0
 25 52  1  0  0  0  0
 25 53  1  0  0  0  0
 26 27  2  0  0  0  0
 26 28  1  0  0  0  0
 28 29  1  0  0  0  0
 28 31  1  0  0  0  0
 29 30  1  0  0  0  0
 29 54  1  0  0  0  0
 29 55  1  0  0  0  0
 30 33  1  0  0  0  0
 30 56  1  0  0  0  0
 30 57  1  0  0  0  0
 31 32  1  0  0  0  0
 31 58  1  0  0  0  0
 31 59  1  0  0  0  0
 32 33  1  0  0  0  0
 32 60  1  0  0  0  0
 32 61  1  0  0  0  0
 33 34  1  0  0  0  0
 33 62  1  0  0  0  0
 34 35  1  0  0  0  0
 34 63  1  0  0  0  0
 34 64  1  0  0  0  0
 35 36  1  0  0  0  0
 35 65  1  0  0  0  0
 35 66  1  0  0  0  0
 36 37  1  0  0  0  0
 36 67  1  0  0  0  0
 36 68  1  0  0  0  0
 37 69  1  0  0  0  0
M  CHG  1  33   1
M  END
> <compound_name>
ALP-UNI-8e43a71e-8

> <provenance>
{"isomeric_smiles": "c1ccc2c(c1)cncc2NC(=O)[C@@]3(CCOc4c3cc(cc4)Cl)CC(=O)N5CC[NH+](CC5)CCCO", "inchi": "InChI=1S/C28H31ClN4O4/c29-21-6-7-25-23(16-21)28(8-15-37-25,17-26(35)33-12-10-32(11-13-33)9-3-14-34)27(36)31-24-19-30-18-20-4-1-2-5-22(20)24/h1-2,4-7,16,18-19,34H,3,8-15,17H2,(H,31,36)/p+1/t28-/m0/s1", "inchi_key": "WROWCVDJFRRWBJ-NDEPHWFRSA-O", "fixed_inchi": "InChI=1/C28H31ClN4O4/c29-21-6-7-25-23(16-21)28(8-15-37-25,17-26(35)33-12-10-32(11-13-33)9-3-14-34)27(36)31-24-19-30-18-20-4-1-2-5-22(20)24/h1-2,4-7,16,18-19,34H,3,8-15,17H2,(H,31,36)/p+1/t28-/m0/s1/fC28H32ClN4O4/h31-32H/q+1", "fixed_inchikey": "WROWCVDJFRRWBJ-SCWDOZLTNA-O"}

> <data_format>
sdf

$$$$
