LIG(A-305)
  -OEChem-06042511323D

 31 32  0     0  0  0  0  0  0999 V2000
    9.8997    0.3574   24.2584 C   0  0  0  0  0  0  0  0  0  0  0  0
    6.4981    0.4406   17.3897 N   0  0  0  0  0  0  0  0  0  0  0  0
   12.1445   -0.6367   23.0242 C   0  0  0  0  0  0  0  0  0  0  0  0
    5.3703    0.7796   19.9407 C   0  0  0  0  0  0  0  0  0  0  0  0
   12.2826    0.3853   23.9462 C   0  0  0  0  0  0  0  0  0  0  0  0
    4.7945    1.0267   21.3118 C   0  0  0  0  0  0  0  0  0  0  0  0
    9.7625   -0.6326   23.2944 C   0  0  0  0  0  0  0  0  0  0  0  0
    4.8663    1.4427   18.8278 C   0  0  0  0  0  0  0  0  0  0  0  0
    8.1454   -0.3425   21.4635 C   0  0  0  0  0  0  0  0  0  0  0  0
    7.0283   -0.7484   20.8376 N   0  0  0  0  0  0  0  0  0  0  0  0
    8.8754    0.5565   21.0435 O   0  0  0  0  0  0  0  0  0  0  0  0
    6.4593   -0.0824   19.7357 C   0  0  0  0  0  0  0  0  0  0  0  0
    8.4045   -1.0415   22.7825 C   0  0  0  0  0  0  0  0  0  0  0  0
    6.9802   -0.2184   18.4476 C   0  0  0  0  0  0  0  0  0  0  0  0
   11.1477    0.8714   24.5763 C   0  0  0  0  0  0  0  0  0  0  0  0
   10.9055   -1.1406   22.6943 C   0  0  0  0  0  0  0  0  0  0  0  0
    5.4562    1.2546   17.5947 C   0  0  0  0  0  0  0  0  0  0  0  0
   13.8414   -1.5308   22.1981 I   0  0  0  0  0  0  0  0  0  0  0  0
    9.0234    0.7318   24.7669 H   0  0  0  0  0  0  0  0  0  0  0  0
   13.2558    0.7964   24.1708 H   0  0  0  0  0  0  0  0  0  0  0  0
    3.9808    1.7636   21.2410 H   0  0  0  0  0  0  0  0  0  0  0  0
    4.4006    0.0838   21.7193 H   0  0  0  0  0  0  0  0  0  0  0  0
    5.5818    1.4126   21.9760 H   0  0  0  0  0  0  0  0  0  0  0  0
    4.0167    2.1020   18.9279 H   0  0  0  0  0  0  0  0  0  0  0  0
    6.5738   -1.5730   21.1746 H   0  0  0  0  0  0  0  0  0  0  0  0
    7.6329   -0.7524   23.5113 H   0  0  0  0  0  0  0  0  0  0  0  0
    8.3787   -2.1311   22.6341 H   0  0  0  0  0  0  0  0  0  0  0  0
    7.8135   -0.8891   18.2989 H   0  0  0  0  0  0  0  0  0  0  0  0
   11.2357    1.6525   25.3169 H   0  0  0  0  0  0  0  0  0  0  0  0
   10.8237   -1.9339   21.9660 H   0  0  0  0  0  0  0  0  0  0  0  0
    5.0552    1.7938   16.7492 H   0  0  0  0  0  0  0  0  0  0  0  0
  1  7  1  0  0  0  0
  1 15  2  0  0  0  0
  1 19  1  0  0  0  0
  2 14  1  0  0  0  0
  2 17  2  0  0  0  0
  3  5  2  0  0  0  0
  3 16  1  0  0  0  0
  3 18  1  0  0  0  0
  4  6  1  0  0  0  0
  4  8  2  0  0  0  0
  4 12  1  0  0  0  0
  5 15  1  0  0  0  0
  5 20  1  0  0  0  0
  6 21  1  0  0  0  0
  6 22  1  0  0  0  0
  6 23  1  0  0  0  0
  7 13  1  0  0  0  0
  7 16  2  0  0  0  0
  8 17  1  0  0  0  0
  8 24  1  0  0  0  0
  9 10  1  0  0  0  0
  9 11  2  0  0  0  0
  9 13  1  0  0  0  0
 10 12  1  0  0  0  0
 10 25  1  0  0  0  0
 12 14  2  0  0  0  0
 13 26  1  0  0  0  0
 13 27  1  0  0  0  0
 14 28  1  0  0  0  0
 15 29  1  0  0  0  0
 16 30  1  0  0  0  0
 17 31  1  0  0  0  0
M  END
> <compound_name>
JAN-GHE-83b26c96-13

> <provenance>
{"isomeric_smiles": "Cc1ccncc1NC(=O)Cc2cccc(c2)I", "inchi": "InChI=1S/C14H13IN2O/c1-10-5-6-16-9-13(10)17-14(18)8-11-3-2-4-12(15)7-11/h2-7,9H,8H2,1H3,(H,17,18)", "inchi_key": "MUVSGYUDBWMCJG-UHFFFAOYSA-N", "fixed_inchi": "InChI=1/C14H13IN2O/c1-10-5-6-16-9-13(10)17-14(18)8-11-3-2-4-12(15)7-11/h2-7,9H,8H2,1H3,(H,17,18)/f/h17H", "fixed_inchikey": "MUVSGYUDBWMCJG-HCKMINDGNA-N"}

> <data_format>
sdf

$$$$
