LIG(A-306)
  -OEChem-06042511383D

 39 42  0     1  0  0  0  0  0999 V2000
   13.8382   -1.7608   21.3130 Cl  0  0  0  0  0  0  0  0  0  0  0  0
   12.6141   -1.0052   22.2769 C   0  0  0  0  0  0  0  0  0  0  0  0
   12.9651   -0.0905   23.2471 C   0  0  0  0  0  0  0  0  0  0  0  0
   14.2763    0.1459   23.4814 F   0  0  0  0  0  0  0  0  0  0  0  0
   11.2799   -1.2616   22.0307 C   0  0  0  0  0  0  0  0  0  0  0  0
   10.2866   -0.5945   22.7446 C   0  0  0  0  0  0  0  0  0  0  0  0
   10.6835    0.3322   23.7186 C   0  0  0  0  0  0  0  0  0  0  0  0
   12.0208    0.5916   23.9719 C   0  0  0  0  0  0  0  0  0  0  0  0
    8.8193   -0.8839   22.5085 C   0  0  1  0  0  0  0  0  0  0  0  0
    8.0206   -0.5218   23.7677 C   0  0  0  0  0  0  0  0  0  0  0  0
    8.3840    0.8729   24.2160 C   0  0  0  0  0  0  0  0  0  0  0  0
    9.7943    1.0185   24.5144 O   0  0  0  0  0  0  0  0  0  0  0  0
    8.3401   -0.0589   21.3116 C   0  0  0  0  0  0  0  0  0  0  0  0
    8.8588    1.0116   21.0033 O   0  0  0  0  0  0  0  0  0  0  0  0
    7.2935   -0.5961   20.6515 N   0  0  0  0  0  0  0  0  0  0  0  0
    6.5185   -0.0158   19.6313 C   0  0  0  0  0  0  0  0  0  0  0  0
    5.4118    0.8128   19.9980 C   0  0  0  0  0  0  0  0  0  0  0  0
    4.9781    1.0050   21.3382 C   0  0  0  0  0  0  0  0  0  0  0  0
    3.9064    1.8065   21.6209 C   0  0  0  0  0  0  0  0  0  0  0  0
    3.2164    2.4547   20.6015 C   0  0  0  0  0  0  0  0  0  0  0  0
    3.5981    2.3036   19.2963 C   0  0  0  0  0  0  0  0  0  0  0  0
    4.6987    1.4760   18.9596 C   0  0  0  0  0  0  0  0  0  0  0  0
    5.1244    1.2568   17.6276 C   0  0  0  0  0  0  0  0  0  0  0  0
    6.1451    0.4823   17.2889 N   0  0  0  0  0  0  0  0  0  0  0  0
    6.8111   -0.1330   18.2742 C   0  0  0  0  0  0  0  0  0  0  0  0
   11.0039   -1.9856   21.2783 H   0  0  0  0  0  0  0  0  0  0  0  0
   12.3125    1.3128   24.7210 H   0  0  0  0  0  0  0  0  0  0  0  0
    8.6862   -1.9537   22.2895 H   0  0  0  0  0  0  0  0  0  0  0  0
    6.9446   -0.5652   23.5434 H   0  0  0  0  0  0  0  0  0  0  0  0
    8.2572   -1.2370   24.5693 H   0  0  0  0  0  0  0  0  0  0  0  0
    8.1197    1.5793   23.4153 H   0  0  0  0  0  0  0  0  0  0  0  0
    7.8069    1.1123   25.1214 H   0  0  0  0  0  0  0  0  0  0  0  0
    7.0362   -1.5238   20.9216 H   0  0  0  0  0  0  0  0  0  0  0  0
    5.5018    0.5118   22.1437 H   0  0  0  0  0  0  0  0  0  0  0  0
    3.5926    1.9374   22.6460 H   0  0  0  0  0  0  0  0  0  0  0  0
    2.3717    3.0830   20.8426 H   0  0  0  0  0  0  0  0  0  0  0  0
    3.0567    2.8187   18.5166 H   0  0  0  0  0  0  0  0  0  0  0  0
    4.5823    1.7529   16.8361 H   0  0  0  0  0  0  0  0  0  0  0  0
    7.6385   -0.7689   17.9957 H   0  0  0  0  0  0  0  0  0  0  0  0
  1  2  1  0  0  0  0
  2  3  2  0  0  0  0
  2  5  1  0  0  0  0
  3  4  1  0  0  0  0
  3  8  1  0  0  0  0
  5  6  2  0  0  0  0
  5 26  1  0  0  0  0
  6  7  1  0  0  0  0
  6  9  1  0  0  0  0
  7  8  2  0  0  0  0
  7 12  1  0  0  0  0
  8 27  1  0  0  0  0
  9 10  1  0  0  0  0
  9 13  1  0  0  0  0
  9 28  1  0  0  0  0
 10 11  1  0  0  0  0
 10 29  1  0  0  0  0
 10 30  1  0  0  0  0
 11 12  1  0  0  0  0
 11 31  1  0  0  0  0
 11 32  1  0  0  0  0
 13 14  2  0  0  0  0
 13 15  1  0  0  0  0
 15 16  1  0  0  0  0
 15 33  1  0  0  0  0
 16 17  2  0  0  0  0
 16 25  1  0  0  0  0
 17 18  1  0  0  0  0
 17 22  1  0  0  0  0
 18 19  2  0  0  0  0
 18 34  1  0  0  0  0
 19 20  1  0  0  0  0
 19 35  1  0  0  0  0
 20 21  2  0  0  0  0
 20 36  1  0  0  0  0
 21 22  1  0  0  0  0
 21 37  1  0  0  0  0
 22 23  2  0  0  0  0
 23 24  1  0  0  0  0
 23 38  1  0  0  0  0
 24 25  2  0  0  0  0
 25 39  1  0  0  0  0
M  END
> <compound_name>
RAL-THA-05e671eb-10

> <provenance>
{"isomeric_smiles": "c1ccc2c(c1)cncc2NC(=O)[C@@H]3CCOc4c3cc(c(c4)F)Cl", "inchi": "InChI=1S/C19H14ClFN2O2/c20-15-7-14-13(5-6-25-18(14)8-16(15)21)19(24)23-17-10-22-9-11-3-1-2-4-12(11)17/h1-4,7-10,13H,5-6H2,(H,23,24)/t13-/m1/s1", "inchi_key": "NNQIVNFMEXUPCH-CYBMUJFWSA-N", "fixed_inchi": "InChI=1/C19H14ClFN2O2/c20-15-7-14-13(5-6-25-18(14)8-16(15)21)19(24)23-17-10-22-9-11-3-1-2-4-12(11)17/h1-4,7-10,13H,5-6H2,(H,23,24)/t13-/m1/s1/f/h23H", "fixed_inchikey": "NNQIVNFMEXUPCH-AGEDDRTLNA-N"}

> <data_format>
sdf

$$$$
