LIG(A-306)
  -OEChem-06042511403D

 66 71  0     1  0  0  0  0  0999 V2000
    9.5105    1.2414   21.0962 O   0  0  0  0  0  0  0  0  0  0  0  0
    9.0059    0.2562   21.6211 C   0  0  0  0  0  0  0  0  0  0  0  0
    7.8437   -0.2836   21.1648 N   0  0  0  0  0  0  0  0  0  0  0  0
    7.0491    0.1607   20.0747 C   0  0  0  0  0  0  0  0  0  0  0  0
    5.8460    0.8896   20.3491 C   0  0  0  0  0  0  0  0  0  0  0  0
    5.3914    1.1983   21.6566 C   0  0  0  0  0  0  0  0  0  0  0  0
    4.2632    1.9451   21.8518 C   0  0  0  0  0  0  0  0  0  0  0  0
    3.5376    2.4254   20.7696 C   0  0  0  0  0  0  0  0  0  0  0  0
    3.9231    2.1448   19.4912 C   0  0  0  0  0  0  0  0  0  0  0  0
    5.0813    1.3649   19.2439 C   0  0  0  0  0  0  0  0  0  0  0  0
    5.5428    1.0603   17.9394 C   0  0  0  0  0  0  0  0  0  0  0  0
    6.6489    0.3804   17.6822 N   0  0  0  0  0  0  0  0  0  0  0  0
    7.3735   -0.0399   18.7293 C   0  0  0  0  0  0  0  0  0  0  0  0
    9.6707   -0.4079   22.8517 C   0  0  2  0  0  0  0  0  0  0  0  0
    9.1203    0.3328   24.0959 C   0  0  0  0  0  0  0  0  0  0  0  0
    9.6743    1.7386   24.2064 C   0  0  0  0  0  0  0  0  0  0  0  0
   11.1095    1.7419   24.3368 O   0  0  0  0  0  0  0  0  0  0  0  0
   11.1877   -0.1368   22.7687 C   0  0  0  0  0  0  0  0  0  0  0  0
   11.7905    0.9336   23.4585 C   0  0  0  0  0  0  0  0  0  0  0  0
   13.1425    1.2087   23.3358 C   0  0  0  0  0  0  0  0  0  0  0  0
   13.9256    0.4154   22.5182 C   0  0  0  0  0  0  0  0  0  0  0  0
   12.0028   -0.9421   21.9751 C   0  0  0  0  0  0  0  0  0  0  0  0
   13.3488   -0.6450   21.8524 C   0  0  0  0  0  0  0  0  0  0  0  0
   14.3233   -1.5927   20.7626 Cl  0  0  0  0  0  0  0  0  0  0  0  0
    9.4449   -1.9417   22.9127 C   0  0  0  0  0  0  0  0  0  0  0  0
    8.3153   -2.4041   23.8102 C   0  0  0  0  0  0  0  0  0  0  0  0
    7.2225   -1.8505   23.7975 O   0  0  0  0  0  0  0  0  0  0  0  0
    8.5280   -3.5004   24.5750 N   0  0  0  0  0  0  0  0  0  0  0  0
    7.3563   -4.2783   25.0119 C   0  0  2  0  0  0  0  0  0  0  0  0
    7.5026   -4.8168   26.4452 C   0  0  0  0  0  0  0  0  0  0  0  0
    8.8767   -5.4334   26.6884 C   0  0  0  0  0  0  0  0  0  0  0  0
    9.9816   -4.4543   26.3494 C   0  0  0  0  0  0  0  0  0  0  0  0
    9.8703   -3.9998   24.9091 C   0  0  0  0  0  0  0  0  0  0  0  0
    6.8650   -5.2811   24.0038 C   0  0  0  0  0  0  0  0  0  0  0  0
    7.4707   -5.6336   22.8301 C   0  0  0  0  0  0  0  0  0  0  0  0
    6.6411   -6.4579   22.1784 N   0  0  0  0  0  0  0  0  0  0  0  0
    5.5022   -6.6865   22.8697 N   0  0  0  0  0  0  0  0  0  0  0  0
    5.6475   -5.9764   23.9807 C   0  0  0  0  0  0  0  0  0  0  0  0
    7.5094   -1.0886   21.6548 H   0  0  0  0  0  0  0  0  0  0  0  0
    5.9451    0.8379   22.5110 H   0  0  0  0  0  0  0  0  0  0  0  0
    3.9333    2.1636   22.8567 H   0  0  0  0  0  0  0  0  0  0  0  0
    2.6579    3.0279   20.9418 H   0  0  0  0  0  0  0  0  0  0  0  0
    3.3420    2.5195   18.6615 H   0  0  0  0  0  0  0  0  0  0  0  0
    4.9546    1.4047   17.1017 H   0  0  0  0  0  0  0  0  0  0  0  0
    8.2848   -0.5789   18.5156 H   0  0  0  0  0  0  0  0  0  0  0  0
    8.0242    0.3871   24.0216 H   0  0  0  0  0  0  0  0  0  0  0  0
    9.3991   -0.2314   24.9981 H   0  0  0  0  0  0  0  0  0  0  0  0
    9.3980    2.3018   23.3028 H   0  0  0  0  0  0  0  0  0  0  0  0
    9.2357    2.2252   25.0901 H   0  0  0  0  0  0  0  0  0  0  0  0
   13.5810    2.0358   23.8742 H   0  0  0  0  0  0  0  0  0  0  0  0
   14.9788    0.6243   22.4023 H   0  0  0  0  0  0  0  0  0  0  0  0
   11.5859   -1.7939   21.4584 H   0  0  0  0  0  0  0  0  0  0  0  0
    9.2313   -2.2927   21.8923 H   0  0  0  0  0  0  0  0  0  0  0  0
   10.3747   -2.4061   23.2731 H   0  0  0  0  0  0  0  0  0  0  0  0
    6.5427   -3.5416   25.0843 H   0  0  0  0  0  0  0  0  0  0  0  0
    7.3556   -3.9874   27.1526 H   0  0  0  0  0  0  0  0  0  0  0  0
    6.7338   -5.5849   26.6158 H   0  0  0  0  0  0  0  0  0  0  0  0
    8.9607   -5.7171   27.7478 H   0  0  0  0  0  0  0  0  0  0  0  0
    8.9849   -6.3292   26.0592 H   0  0  0  0  0  0  0  0  0  0  0  0
    9.9044   -3.5792   27.0113 H   0  0  0  0  0  0  0  0  0  0  0  0
   10.9556   -4.9428   26.4997 H   0  0  0  0  0  0  0  0  0  0  0  0
   10.1030   -4.8509   24.2523 H   0  0  0  0  0  0  0  0  0  0  0  0
   10.5989   -3.1939   24.7369 H   0  0  0  0  0  0  0  0  0  0  0  0
    8.4423   -5.3067   22.4902 H   0  0  0  0  0  0  0  0  0  0  0  0
    6.8403   -6.8576   21.2827 H   0  0  0  0  0  0  0  0  0  0  0  0
    4.9151   -5.9384   24.7735 H   0  0  0  0  0  0  0  0  0  0  0  0
  1  2  2  0  0  0  0
  2  3  1  0  0  0  0
  2 14  1  0  0  0  0
  3  4  1  0  0  0  0
  3 39  1  0  0  0  0
  4  5  2  0  0  0  0
  4 13  1  0  0  0  0
  5  6  1  0  0  0  0
  5 10  1  0  0  0  0
  6  7  2  0  0  0  0
  6 40  1  0  0  0  0
  7  8  1  0  0  0  0
  7 41  1  0  0  0  0
  8  9  2  0  0  0  0
  8 42  1  0  0  0  0
  9 10  1  0  0  0  0
  9 43  1  0  0  0  0
 10 11  2  0  0  0  0
 11 12  1  0  0  0  0
 11 44  1  0  0  0  0
 12 13  2  0  0  0  0
 13 45  1  0  0  0  0
 14 15  1  0  0  0  0
 14 18  1  0  0  0  0
 14 25  1  0  0  0  0
 15 16  1  0  0  0  0
 15 46  1  0  0  0  0
 15 47  1  0  0  0  0
 16 17  1  0  0  0  0
 16 48  1  0  0  0  0
 16 49  1  0  0  0  0
 17 19  1  0  0  0  0
 18 19  2  0  0  0  0
 18 22  1  0  0  0  0
 19 20  1  0  0  0  0
 20 21  2  0  0  0  0
 20 50  1  0  0  0  0
 21 23  1  0  0  0  0
 21 51  1  0  0  0  0
 22 23  2  0  0  0  0
 22 52  1  0  0  0  0
 23 24  1  0  0  0  0
 25 26  1  0  0  0  0
 25 53  1  0  0  0  0
 25 54  1  0  0  0  0
 26 27  2  0  0  0  0
 26 28  1  0  0  0  0
 28 29  1  0  0  0  0
 28 33  1  0  0  0  0
 29 30  1  0  0  0  0
 29 34  1  0  0  0  0
 29 55  1  0  0  0  0
 30 31  1  0  0  0  0
 30 56  1  0  0  0  0
 30 57  1  0  0  0  0
 31 32  1  0  0  0  0
 31 58  1  0  0  0  0
 31 59  1  0  0  0  0
 32 33  1  0  0  0  0
 32 60  1  0  0  0  0
 32 61  1  0  0  0  0
 33 62  1  0  0  0  0
 33 63  1  0  0  0  0
 34 35  2  0  0  0  0
 34 38  1  0  0  0  0
 35 36  1  0  0  0  0
 35 64  1  0  0  0  0
 36 37  1  0  0  0  0
 36 65  1  0  0  0  0
 37 38  2  0  0  0  0
 38 66  1  0  0  0  0
M  END
> <compound_name>
EDG-MED-ba1ac7b9-11

> <provenance>
{"isomeric_smiles": "c1ccc2c(c1)cncc2NC(=O)[C@@]3(CCOc4c3cc(cc4)Cl)CC(=O)N5CCCC[C@@H]5c6c[nH]nc6", "inchi": "InChI=1S/C29H28ClN5O3/c30-21-8-9-26-23(13-21)29(10-12-38-26,28(37)34-24-18-31-15-19-5-1-2-6-22(19)24)14-27(36)35-11-4-3-7-25(35)20-16-32-33-17-20/h1-2,5-6,8-9,13,15-18,25H,3-4,7,10-12,14H2,(H,32,33)(H,34,37)/t25-,29+/m1/s1", "inchi_key": "PJTWPJYCTTZBKW-IRPSRAIASA-N", "fixed_inchi": "InChI=1/C29H28ClN5O3/c30-21-8-9-26-23(13-21)29(10-12-38-26,28(37)34-24-18-31-15-19-5-1-2-6-22(19)24)14-27(36)35-11-4-3-7-25(35)20-16-32-33-17-20/h1-2,5-6,8-9,13,15-18,25H,3-4,7,10-12,14H2,(H,32,33)(H,34,37)/t25-,29+/m1/s1/f/h32,34H", "fixed_inchikey": "PJTWPJYCTTZBKW-CMEYEPISNA-N"}

> <data_format>
sdf

$$$$
