LIG(A-305)
  -OEChem-06042511323D

 25 26  0     0  0  0  0  0  0999 V2000
    9.1099    0.5446   21.0935 O   0  0  0  0  0  0  0  0  0  0  0  0
    8.4298   -0.4483   21.3526 C   0  0  0  0  0  0  0  0  0  0  0  0
    8.8278   -1.4134   22.4475 C   0  0  0  0  0  0  0  0  0  0  0  0
   10.0079   -0.7646   23.1075 C   0  0  0  0  0  0  0  0  0  0  0  0
   10.0071   -0.0296   24.2735 C   0  0  0  0  0  0  0  0  0  0  0  0
   11.2641    0.4913   24.6084 C   0  0  0  0  0  0  0  0  0  0  0  0
   11.5948   -0.8297   22.4264 S   0  0  0  0  0  0  0  0  0  0  0  0
   12.2050    0.1372   23.7043 C   0  0  0  0  0  0  0  0  0  0  0  0
   13.8701    0.5450   23.7412 Cl  0  0  0  0  0  0  0  0  0  0  0  0
    7.2797   -0.7572   20.7146 N   0  0  0  0  0  0  0  0  0  0  0  0
    6.6368   -0.0171   19.6997 C   0  0  0  0  0  0  0  0  0  0  0  0
    7.2227    0.1438   18.4447 C   0  0  0  0  0  0  0  0  0  0  0  0
    6.6407    0.8059   17.4387 N   0  0  0  0  0  0  0  0  0  0  0  0
    5.4388    1.3471   17.6668 C   0  0  0  0  0  0  0  0  0  0  0  0
    4.7799    1.2571   18.8788 C   0  0  0  0  0  0  0  0  0  0  0  0
    5.3878    0.5580   19.9088 C   0  0  0  0  0  0  0  0  0  0  0  0
    8.0055   -1.5475   23.1658 H   0  0  0  0  0  0  0  0  0  0  0  0
    9.1070   -2.3892   22.0235 H   0  0  0  0  0  0  0  0  0  0  0  0
    9.1221    0.1297   24.8718 H   0  0  0  0  0  0  0  0  0  0  0  0
   11.4573    1.0994   25.4797 H   0  0  0  0  0  0  0  0  0  0  0  0
    6.8331   -1.6074   20.9935 H   0  0  0  0  0  0  0  0  0  0  0  0
    8.1977   -0.2889   18.2760 H   0  0  0  0  0  0  0  0  0  0  0  0
    4.9578    1.8824   16.8616 H   0  0  0  0  0  0  0  0  0  0  0  0
    3.8145    1.7206   19.0193 H   0  0  0  0  0  0  0  0  0  0  0  0
    4.8964    0.4605   20.8655 H   0  0  0  0  0  0  0  0  0  0  0  0
  1  2  2  0  0  0  0
  2  3  1  0  0  0  0
  2 10  1  0  0  0  0
  3  4  1  0  0  0  0
  3 17  1  0  0  0  0
  3 18  1  0  0  0  0
  4  5  2  0  0  0  0
  4  7  1  0  0  0  0
  5  6  1  0  0  0  0
  5 19  1  0  0  0  0
  6  8  2  0  0  0  0
  6 20  1  0  0  0  0
  7  8  1  0  0  0  0
  8  9  1  0  0  0  0
 10 11  1  0  0  0  0
 10 21  1  0  0  0  0
 11 12  2  0  0  0  0
 11 16  1  0  0  0  0
 12 13  1  0  0  0  0
 12 22  1  0  0  0  0
 13 14  2  0  0  0  0
 14 15  1  0  0  0  0
 14 23  1  0  0  0  0
 15 16  2  0  0  0  0
 15 24  1  0  0  0  0
 16 25  1  0  0  0  0
M  END
> <compound_name>
DAR-DIA-842b4336-13

> <provenance>
{"isomeric_smiles": "c1cc(cnc1)NC(=O)Cc2ccc(s2)Cl", "inchi": "InChI=1S/C11H9ClN2OS/c12-10-4-3-9(16-10)6-11(15)14-8-2-1-5-13-7-8/h1-5,7H,6H2,(H,14,15)", "inchi_key": "VLAXFSPPTLAYDD-UHFFFAOYSA-N", "fixed_inchi": "InChI=1/C11H9ClN2OS/c12-10-4-3-9(16-10)6-11(15)14-8-2-1-5-13-7-8/h1-5,7H,6H2,(H,14,15)/f/h14H", "fixed_inchikey": "VLAXFSPPTLAYDD-YHMJCDSINA-N"}

> <data_format>
sdf

$$$$
