LIG(A-307)
  -OEChem-06042511393D

 58 62  0     1  0  0  0  0  0999 V2000
    9.5135    1.2851   21.0665 O   0  0  0  0  0  0  0  0  0  0  0  0
    8.9898    0.3500   21.6517 C   0  0  0  0  0  0  0  0  0  0  0  0
    7.8189   -0.1898   21.2428 N   0  0  0  0  0  0  0  0  0  0  0  0
    7.0507    0.1882   20.1196 C   0  0  0  0  0  0  0  0  0  0  0  0
    5.8460    0.9293   20.3352 C   0  0  0  0  0  0  0  0  0  0  0  0
    5.3505    1.2786   21.6199 C   0  0  0  0  0  0  0  0  0  0  0  0
    4.2178    2.0300   21.7575 C   0  0  0  0  0  0  0  0  0  0  0  0
    3.5237    2.4728   20.6397 C   0  0  0  0  0  0  0  0  0  0  0  0
    3.9513    2.1515   19.3821 C   0  0  0  0  0  0  0  0  0  0  0  0
    5.1189    1.3683   19.1953 C   0  0  0  0  0  0  0  0  0  0  0  0
    5.6215    1.0209   17.9186 C   0  0  0  0  0  0  0  0  0  0  0  0
    6.7312    0.3219   17.7192 N   0  0  0  0  0  0  0  0  0  0  0  0
    7.4174   -0.0747   18.7983 C   0  0  0  0  0  0  0  0  0  0  0  0
    9.6057   -0.2106   22.9529 C   0  0  1  0  0  0  0  0  0  0  0  0
   11.1230   -0.0201   22.9171 C   0  0  0  0  0  0  0  0  0  0  0  0
   11.9077   -0.8063   22.0792 C   0  0  0  0  0  0  0  0  0  0  0  0
   13.2652   -0.5673   22.0046 C   0  0  0  0  0  0  0  0  0  0  0  0
   14.2038   -1.4280   20.8184 Cl  0  0  0  0  0  0  0  0  0  0  0  0
   13.8818    0.3947   22.7806 C   0  0  0  0  0  0  0  0  0  0  0  0
   13.1190    1.1567   23.6453 C   0  0  0  0  0  0  0  0  0  0  0  0
   11.7506    0.9508   23.7011 C   0  0  0  0  0  0  0  0  0  0  0  0
   11.0619    1.7355   24.5880 O   0  0  0  0  0  0  0  0  0  0  0  0
    9.9087    1.0718   25.1335 C   0  0  0  0  0  0  0  0  0  0  0  0
    8.9350    0.6500   24.0522 C   0  0  0  0  0  0  0  0  0  0  0  0
    9.3280   -1.7221   23.1453 C   0  0  0  0  0  0  0  0  0  0  0  0
    7.9753   -2.0630   23.5794 N   0  3  0  0  0  0  0  0  0  0  0  0
    7.6529   -3.4541   23.3213 C   0  0  0  0  0  0  0  0  0  0  0  0
    8.5063   -4.2872   24.2242 C   0  0  0  0  0  0  0  0  0  0  0  0
    9.3594   -5.3840   23.8957 C   0  0  0  0  0  0  0  0  0  0  0  0
    9.9026   -5.7810   25.0758 C   0  0  0  0  0  0  0  0  0  0  0  0
    8.5286   -4.0349   25.5375 N   0  0  0  0  0  0  0  0  0  0  0  0
    9.3789   -4.9669   26.0419 N   0  0  0  0  0  0  0  0  0  0  0  0
    9.5675   -5.0556   27.4825 C   0  0  0  0  0  0  0  0  0  0  0  0
    7.4572   -0.9395   21.7970 H   0  0  0  0  0  0  0  0  0  0  0  0
    5.8775    0.9450   22.5016 H   0  0  0  0  0  0  0  0  0  0  0  0
    3.8591    2.2816   22.7447 H   0  0  0  0  0  0  0  0  0  0  0  0
    2.6374    3.0771   20.7651 H   0  0  0  0  0  0  0  0  0  0  0  0
    3.3952    2.4968   18.5231 H   0  0  0  0  0  0  0  0  0  0  0  0
    5.0659    1.3456   17.0512 H   0  0  0  0  0  0  0  0  0  0  0  0
    8.3225   -0.6406   18.6343 H   0  0  0  0  0  0  0  0  0  0  0  0
   11.4595   -1.5951   21.4935 H   0  0  0  0  0  0  0  0  0  0  0  0
   14.9483    0.5498   22.7123 H   0  0  0  0  0  0  0  0  0  0  0  0
   13.5847    1.9041   24.2705 H   0  0  0  0  0  0  0  0  0  0  0  0
   10.2395    0.1778   25.6825 H   0  0  0  0  0  0  0  0  0  0  0  0
    9.3972    1.7580   25.8245 H   0  0  0  0  0  0  0  0  0  0  0  0
    8.1266    0.0645   24.5144 H   0  0  0  0  0  0  0  0  0  0  0  0
    8.5135    1.5525   23.5855 H   0  0  0  0  0  0  0  0  0  0  0  0
    9.5125   -2.2255   22.1847 H   0  0  0  0  0  0  0  0  0  0  0  0
   10.0320   -2.1027   23.8999 H   0  0  0  0  0  0  0  0  0  0  0  0
    7.8991   -1.8913   24.5615 H   0  0  0  0  0  0  0  0  0  0  0  0
    7.3239   -1.4846   23.0883 H   0  0  0  0  0  0  0  0  0  0  0  0
    6.5894   -3.6390   23.5333 H   0  0  0  0  0  0  0  0  0  0  0  0
    7.8655   -3.7005   22.2705 H   0  0  0  0  0  0  0  0  0  0  0  0
    9.5353   -5.8076   22.9179 H   0  0  0  0  0  0  0  0  0  0  0  0
   10.6103   -6.5834   25.2225 H   0  0  0  0  0  0  0  0  0  0  0  0
   10.2222   -5.9084   27.7153 H   0  0  0  0  0  0  0  0  0  0  0  0
   10.0302   -4.1274   27.8494 H   0  0  0  0  0  0  0  0  0  0  0  0
    8.5927   -5.1976   27.9717 H   0  0  0  0  0  0  0  0  0  0  0  0
  1  2  2  0  0  0  0
  2  3  1  0  0  0  0
  2 14  1  0  0  0  0
  3  4  1  0  0  0  0
  3 34  1  0  0  0  0
  4  5  2  0  0  0  0
  4 13  1  0  0  0  0
  5  6  1  0  0  0  0
  5 10  1  0  0  0  0
  6  7  2  0  0  0  0
  6 35  1  0  0  0  0
  7  8  1  0  0  0  0
  7 36  1  0  0  0  0
  8  9  2  0  0  0  0
  8 37  1  0  0  0  0
  9 10  1  0  0  0  0
  9 38  1  0  0  0  0
 10 11  2  0  0  0  0
 11 12  1  0  0  0  0
 11 39  1  0  0  0  0
 12 13  2  0  0  0  0
 13 40  1  0  0  0  0
 14 15  1  0  0  0  0
 14 24  1  0  0  0  0
 14 25  1  0  0  0  0
 15 16  2  0  0  0  0
 15 21  1  0  0  0  0
 16 17  1  0  0  0  0
 16 41  1  0  0  0  0
 17 18  1  0  0  0  0
 17 19  2  0  0  0  0
 19 20  1  0  0  0  0
 19 42  1  0  0  0  0
 20 21  2  0  0  0  0
 20 43  1  0  0  0  0
 21 22  1  0  0  0  0
 22 23  1  0  0  0  0
 23 24  1  0  0  0  0
 23 44  1  0  0  0  0
 23 45  1  0  0  0  0
 24 46  1  0  0  0  0
 24 47  1  0  0  0  0
 25 26  1  0  0  0  0
 25 48  1  0  0  0  0
 25 49  1  0  0  0  0
 26 27  1  0  0  0  0
 26 50  1  0  0  0  0
 26 51  1  0  0  0  0
 27 28  1  0  0  0  0
 27 52  1  0  0  0  0
 27 53  1  0  0  0  0
 28 29  1  0  0  0  0
 28 31  2  0  0  0  0
 29 30  2  0  0  0  0
 29 54  1  0  0  0  0
 30 32  1  0  0  0  0
 30 55  1  0  0  0  0
 31 32  1  0  0  0  0
 32 33  1  0  0  0  0
 33 56  1  0  0  0  0
 33 57  1  0  0  0  0
 33 58  1  0  0  0  0
M  CHG  1  26   1
M  END
> <compound_name>
EDJ-MED-8c98ee63-2

> <provenance>
{"isomeric_smiles": "Cn1ccc(n1)C[NH2+]C[C@]2(CCOc3c2cc(cc3)Cl)C(=O)Nc4cncc5c4cccc5", "inchi": "InChI=1S/C25H24ClN5O2/c1-31-10-8-19(30-31)14-28-16-25(9-11-33-23-7-6-18(26)12-21(23)25)24(32)29-22-15-27-13-17-4-2-3-5-20(17)22/h2-8,10,12-13,15,28H,9,11,14,16H2,1H3,(H,29,32)/p+1/t25-/m0/s1", "inchi_key": "ZITSXTKDCXOESQ-VWLOTQADSA-O", "fixed_inchi": "InChI=1/C25H24ClN5O2/c1-31-10-8-19(30-31)14-28-16-25(9-11-33-23-7-6-18(26)12-21(23)25)24(32)29-22-15-27-13-17-4-2-3-5-20(17)22/h2-8,10,12-13,15,28H,9,11,14,16H2,1H3,(H,29,32)/p+1/t25-/m0/s1/fC25H25ClN5O2/h28-29H/q+1", "fixed_inchikey": "ZITSXTKDCXOESQ-CVCMTJOFNA-O"}

> <data_format>
sdf

$$$$
