LIG(A-305)
  -OEChem-06042511313D

 34 35  0     0  0  0  0  0  0999 V2000
    8.9623    0.2241   21.7210 C   0  0  0  0  0  0  0  0  0  0  0  0
    9.5143   -0.2640   23.0550 C   0  0  0  0  0  0  0  0  0  0  0  0
   11.0323   -0.1729   23.1201 C   0  0  0  0  0  0  0  0  0  0  0  0
   11.6823   -1.1179   22.1112 C   0  0  0  0  0  0  0  0  0  0  0  0
   12.9273   -1.8159   22.6532 C   0  0  0  0  0  0  0  0  0  0  0  0
   13.7412   -0.9859   23.6363 C   0  0  0  0  0  0  0  0  0  0  0  0
   12.9142   -0.2780   24.7043 C   0  0  0  0  0  0  0  0  0  0  0  0
   11.4162   -0.5000   24.5532 C   0  0  0  0  0  0  0  0  0  0  0  0
    7.0895    0.1081   20.1169 C   0  0  0  0  0  0  0  0  0  0  0  0
    5.8364    0.7020   20.2348 C   0  0  0  0  0  0  0  0  0  0  0  0
    5.2355    1.1351   19.0578 C   0  0  0  0  0  0  0  0  0  0  0  0
    5.9156    0.9581   17.8618 C   0  0  0  0  0  0  0  0  0  0  0  0
    7.7285   -0.0309   18.8999 C   0  0  0  0  0  0  0  0  0  0  0  0
    7.7054   -0.3290   21.3329 N   0  0  0  0  0  0  0  0  0  0  0  0
    7.1146    0.3961   17.8179 N   0  0  0  0  0  0  0  0  0  0  0  0
    9.5184    1.0171   21.0311 O   0  0  0  0  0  0  0  0  0  0  0  0
    9.0881    0.3518   23.8607 H   0  0  0  0  0  0  0  0  0  0  0  0
    9.2163   -1.3131   23.1986 H   0  0  0  0  0  0  0  0  0  0  0  0
   11.3395    0.8585   22.8926 H   0  0  0  0  0  0  0  0  0  0  0  0
   10.9472   -1.8855   21.8277 H   0  0  0  0  0  0  0  0  0  0  0  0
   11.9672   -0.5368   21.2217 H   0  0  0  0  0  0  0  0  0  0  0  0
   12.6096   -2.7375   23.1629 H   0  0  0  0  0  0  0  0  0  0  0  0
   13.5751   -2.0724   21.8020 H   0  0  0  0  0  0  0  0  0  0  0  0
   14.4547   -1.6537   24.1412 H   0  0  0  0  0  0  0  0  0  0  0  0
   14.2928   -0.2230   23.0674 H   0  0  0  0  0  0  0  0  0  0  0  0
   13.2245   -0.6523   25.6910 H   0  0  0  0  0  0  0  0  0  0  0  0
   13.1148    0.8017   24.6420 H   0  0  0  0  0  0  0  0  0  0  0  0
   11.1706   -1.5491   24.7747 H   0  0  0  0  0  0  0  0  0  0  0  0
   10.8701    0.1584   25.2448 H   0  0  0  0  0  0  0  0  0  0  0  0
    5.3542    0.8209   21.1938 H   0  0  0  0  0  0  0  0  0  0  0  0
    4.2604    1.5990   19.0745 H   0  0  0  0  0  0  0  0  0  0  0  0
    5.4555    1.2872   16.9419 H   0  0  0  0  0  0  0  0  0  0  0  0
    8.7091   -0.4796   18.8385 H   0  0  0  0  0  0  0  0  0  0  0  0
    7.2586   -1.0161   21.9058 H   0  0  0  0  0  0  0  0  0  0  0  0
  1  2  1  0  0  0  0
  1 14  1  0  0  0  0
  1 16  2  0  0  0  0
  2  3  1  0  0  0  0
  2 17  1  0  0  0  0
  2 18  1  0  0  0  0
  3  4  1  0  0  0  0
  3  8  1  0  0  0  0
  3 19  1  0  0  0  0
  4  5  1  0  0  0  0
  4 20  1  0  0  0  0
  4 21  1  0  0  0  0
  5  6  1  0  0  0  0
  5 22  1  0  0  0  0
  5 23  1  0  0  0  0
  6  7  1  0  0  0  0
  6 24  1  0  0  0  0
  6 25  1  0  0  0  0
  7  8  1  0  0  0  0
  7 26  1  0  0  0  0
  7 27  1  0  0  0  0
  8 28  1  0  0  0  0
  8 29  1  0  0  0  0
  9 10  2  0  0  0  0
  9 13  1  0  0  0  0
  9 14  1  0  0  0  0
 10 11  1  0  0  0  0
 10 30  1  0  0  0  0
 11 12  2  0  0  0  0
 11 31  1  0  0  0  0
 12 15  1  0  0  0  0
 12 32  1  0  0  0  0
 13 15  2  0  0  0  0
 13 33  1  0  0  0  0
 14 34  1  0  0  0  0
M  END
> <compound_name>
ALE-HEI-f28a35b5-9

> <provenance>
{"isomeric_smiles": "c1cc(cnc1)NC(=O)CC2CCCCC2", "inchi": "InChI=1S/C13H18N2O/c16-13(9-11-5-2-1-3-6-11)15-12-7-4-8-14-10-12/h4,7-8,10-11H,1-3,5-6,9H2,(H,15,16)", "inchi_key": "SIURWXONEBYXJD-UHFFFAOYSA-N", "fixed_inchi": "InChI=1/C13H18N2O/c16-13(9-11-5-2-1-3-6-11)15-12-7-4-8-14-10-12/h4,7-8,10-11H,1-3,5-6,9H2,(H,15,16)/f/h15H", "fixed_inchikey": "SIURWXONEBYXJD-YAQRNVERNA-N"}

> <data_format>
sdf

$$$$
