LIG(A-306)
  -OEChem-06042511393D

 51 54  0     1  0  0  0  0  0999 V2000
   14.0304   -1.4379   21.3810 Cl  0  0  0  0  0  0  0  0  0  0  0  0
   12.7575   -0.7542   22.3605 C   0  0  0  0  0  0  0  0  0  0  0  0
   11.4599   -1.1957   22.1823 C   0  0  0  0  0  0  0  0  0  0  0  0
   13.0636    0.2406   23.2659 C   0  0  0  0  0  0  0  0  0  0  0  0
   12.0493    0.7890   24.0292 C   0  0  0  0  0  0  0  0  0  0  0  0
   10.7258    0.3755   23.8699 C   0  0  0  0  0  0  0  0  0  0  0  0
    9.6437    0.9901   24.7332 C   0  0  0  0  0  0  0  0  0  0  0  0
    8.2985    0.7812   24.1738 N   0  3  2  0  0  0  0  0  0  0  0  0
    7.2343    1.3307   25.0081 C   0  0  0  0  0  0  0  0  0  0  0  0
    6.7544    2.7125   24.5895 C   0  0  0  0  0  0  0  0  0  0  0  0
    5.9900    3.3407   25.3182 O   0  0  0  0  0  0  0  0  0  0  0  0
    7.1726    3.1840   23.4163 N   0  0  0  0  0  0  0  0  0  0  0  0
    6.6172    4.3817   22.8110 C   0  0  0  0  0  0  0  0  0  0  0  0
   10.4255   -0.6103   22.9125 C   0  0  0  0  0  0  0  0  0  0  0  0
    8.9748   -0.9448   22.6054 C   0  0  1  0  0  0  0  0  0  0  0  0
    8.0981   -0.6241   23.8157 C   0  0  0  0  0  0  0  0  0  0  0  0
    8.4793   -0.0497   21.4674 C   0  0  0  0  0  0  0  0  0  0  0  0
    8.7069    1.1631   21.4427 O   0  0  0  0  0  0  0  0  0  0  0  0
    7.7093   -0.6793   20.5494 N   0  0  0  0  0  0  0  0  0  0  0  0
    6.7270   -0.1897   19.6516 C   0  0  0  0  0  0  0  0  0  0  0  0
    5.7433    0.7753   20.0613 C   0  0  0  0  0  0  0  0  0  0  0  0
    5.3317    0.9540   21.4069 C   0  0  0  0  0  0  0  0  0  0  0  0
    4.2647    1.7499   21.7189 C   0  0  0  0  0  0  0  0  0  0  0  0
    3.5694    2.4272   20.7264 C   0  0  0  0  0  0  0  0  0  0  0  0
    3.9330    2.3036   19.4179 C   0  0  0  0  0  0  0  0  0  0  0  0
    5.0138    1.4626   19.0449 C   0  0  0  0  0  0  0  0  0  0  0  0
    5.3093    1.1561   17.6967 C   0  0  0  0  0  0  0  0  0  0  0  0
    6.1991    0.2542   17.3191 N   0  0  0  0  0  0  0  0  0  0  0  0
    6.8675   -0.3952   18.2796 C   0  0  0  0  0  0  0  0  0  0  0  0
   11.2480   -1.9896   21.4814 H   0  0  0  0  0  0  0  0  0  0  0  0
   14.0808    0.5860   23.3771 H   0  0  0  0  0  0  0  0  0  0  0  0
   12.2848    1.5488   24.7597 H   0  0  0  0  0  0  0  0  0  0  0  0
    9.6862    0.5330   25.7328 H   0  0  0  0  0  0  0  0  0  0  0  0
    9.8285    2.0712   24.8163 H   0  0  0  0  0  0  0  0  0  0  0  0
    8.2730    1.2936   23.3154 H   0  0  0  0  0  0  0  0  0  0  0  0
    6.3770    0.6426   24.9688 H   0  0  0  0  0  0  0  0  0  0  0  0
    7.6061    1.3946   26.0414 H   0  0  0  0  0  0  0  0  0  0  0  0
    7.8978    2.6939   22.9328 H   0  0  0  0  0  0  0  0  0  0  0  0
    7.1171    4.5731   21.8500 H   0  0  0  0  0  0  0  0  0  0  0  0
    5.5394    4.2409   22.6419 H   0  0  0  0  0  0  0  0  0  0  0  0
    6.7740    5.2384   23.4828 H   0  0  0  0  0  0  0  0  0  0  0  0
    8.8741   -2.0050   22.3298 H   0  0  0  0  0  0  0  0  0  0  0  0
    8.3832   -1.2670   24.6614 H   0  0  0  0  0  0  0  0  0  0  0  0
    7.0411   -0.7960   23.5644 H   0  0  0  0  0  0  0  0  0  0  0  0
    7.8602   -1.6663   20.4945 H   0  0  0  0  0  0  0  0  0  0  0  0
    5.8701    0.4531   22.1980 H   0  0  0  0  0  0  0  0  0  0  0  0
    3.9592    1.8528   22.7497 H   0  0  0  0  0  0  0  0  0  0  0  0
    2.7336    3.0572   20.9929 H   0  0  0  0  0  0  0  0  0  0  0  0
    3.3937    2.8505   18.6587 H   0  0  0  0  0  0  0  0  0  0  0  0
    4.7744    1.6923   16.9269 H   0  0  0  0  0  0  0  0  0  0  0  0
    7.5784   -1.1446   17.9642 H   0  0  0  0  0  0  0  0  0  0  0  0
  1  2  1  0  0  0  0
  2  3  2  0  0  0  0
  2  4  1  0  0  0  0
  3 14  1  0  0  0  0
  3 30  1  0  0  0  0
  4  5  2  0  0  0  0
  4 31  1  0  0  0  0
  5  6  1  0  0  0  0
  5 32  1  0  0  0  0
  6  7  1  0  0  0  0
  6 14  2  0  0  0  0
  7  8  1  0  0  0  0
  7 33  1  0  0  0  0
  7 34  1  0  0  0  0
  8  9  1  0  0  0  0
  8 16  1  0  0  0  0
  8 35  1  0  0  0  0
  9 10  1  0  0  0  0
  9 36  1  0  0  0  0
  9 37  1  0  0  0  0
 10 11  2  0  0  0  0
 10 12  1  0  0  0  0
 12 13  1  0  0  0  0
 12 38  1  0  0  0  0
 13 39  1  0  0  0  0
 13 40  1  0  0  0  0
 13 41  1  0  0  0  0
 14 15  1  0  0  0  0
 15 16  1  0  0  0  0
 15 17  1  0  0  0  0
 15 42  1  0  0  0  0
 16 43  1  0  0  0  0
 16 44  1  0  0  0  0
 17 18  2  0  0  0  0
 17 19  1  0  0  0  0
 19 20  1  0  0  0  0
 19 45  1  0  0  0  0
 20 21  2  0  0  0  0
 20 29  1  0  0  0  0
 21 22  1  0  0  0  0
 21 26  1  0  0  0  0
 22 23  2  0  0  0  0
 22 46  1  0  0  0  0
 23 24  1  0  0  0  0
 23 47  1  0  0  0  0
 24 25  2  0  0  0  0
 24 48  1  0  0  0  0
 25 26  1  0  0  0  0
 25 49  1  0  0  0  0
 26 27  2  0  0  0  0
 27 28  1  0  0  0  0
 27 50  1  0  0  0  0
 28 29  2  0  0  0  0
 29 51  1  0  0  0  0
M  CHG  1   8   1
M  END
> <compound_name>
MAT-POS-4223bc15-23

> <provenance>
{"isomeric_smiles": "CNC(=O)C[N@H+]1Cc2ccc(cc2[C@@H](C1)C(=O)Nc3cncc4c3cccc4)Cl", "inchi": "InChI=1S/C22H21ClN4O2/c1-24-21(28)13-27-11-15-6-7-16(23)8-18(15)19(12-27)22(29)26-20-10-25-9-14-4-2-3-5-17(14)20/h2-10,19H,11-13H2,1H3,(H,24,28)(H,26,29)/p+1/t19-/m1/s1", "inchi_key": "BNHZFFZRNBJNJB-LJQANCHMSA-O", "fixed_inchi": "InChI=1/C22H21ClN4O2/c1-24-21(28)13-27-11-15-6-7-16(23)8-18(15)19(12-27)22(29)26-20-10-25-9-14-4-2-3-5-17(14)20/h2-10,19H,11-13H2,1H3,(H,24,28)(H,26,29)/p+1/t19-/m1/s1/fC22H22ClN4O2/h24,26-27H/q+1", "fixed_inchikey": "BNHZFFZRNBJNJB-IMKXZNKWNA-O"}

> <data_format>
sdf

$$$$
