LIG(A-306)
  -OEChem-06042511403D

 53 57  0     1  0  0  0  0  0999 V2000
    8.8887    6.8414   22.2695 N   0  0  0  0  0  0  0  0  0  0  0  0
    8.1001    6.0529   22.5037 C   0  0  0  0  0  0  0  0  0  0  0  0
    7.1120    5.0103   22.8337 C   0  0  0  0  0  0  0  0  0  0  0  0
    7.0476    4.6769   24.3461 C   0  0  0  0  0  0  0  0  0  0  0  0
    7.5418    3.5375   22.6073 C   0  0  0  0  0  0  0  0  0  0  0  0
    7.6957    3.3628   24.0774 N   0  0  0  0  0  0  0  0  0  0  0  0
    7.7031    2.0452   24.9929 S   0  0  0  0  0  0  0  0  0  0  0  0
    8.1093    2.4669   26.2889 O   0  0  0  0  0  0  0  0  0  0  0  0
    6.4726    1.3538   24.8097 O   0  0  0  0  0  0  0  0  0  0  0  0
    8.8720    1.1236   24.4110 N   0  0  1  0  0  0  0  0  0  0  0  0
   10.2696    1.3207   24.8087 C   0  0  0  0  0  0  0  0  0  0  0  0
    8.5300   -0.2843   24.1311 C   0  0  0  0  0  0  0  0  0  0  0  0
    9.2788   -0.7246   22.8737 C   0  0  2  0  0  0  0  0  0  0  0  0
   10.7625   -0.4143   22.9930 C   0  0  0  0  0  0  0  0  0  0  0  0
   11.2028    0.5984   23.8629 C   0  0  0  0  0  0  0  0  0  0  0  0
   12.5526    0.9465   23.8714 C   0  0  0  0  0  0  0  0  0  0  0  0
   13.4620    0.3016   23.0570 C   0  0  0  0  0  0  0  0  0  0  0  0
   11.6929   -1.0844   22.1954 C   0  0  0  0  0  0  0  0  0  0  0  0
   13.0247   -0.7104   22.2390 C   0  0  0  0  0  0  0  0  0  0  0  0
   14.1697   -1.5257   21.2127 Cl  0  0  0  0  0  0  0  0  0  0  0  0
    8.7151    0.0077   21.6505 C   0  0  0  0  0  0  0  0  0  0  0  0
    9.2980    0.9590   21.1381 O   0  0  0  0  0  0  0  0  0  0  0  0
    7.5259   -0.4715   21.1943 N   0  0  0  0  0  0  0  0  0  0  0  0
    6.7627   -0.0044   20.0938 C   0  0  0  0  0  0  0  0  0  0  0  0
    5.6035    0.8039   20.3341 C   0  0  0  0  0  0  0  0  0  0  0  0
    5.0763    1.0696   21.6245 C   0  0  0  0  0  0  0  0  0  0  0  0
    3.9660    1.8522   21.7847 C   0  0  0  0  0  0  0  0  0  0  0  0
    3.3279    2.4110   20.6846 C   0  0  0  0  0  0  0  0  0  0  0  0
    3.7942    2.1843   19.4213 C   0  0  0  0  0  0  0  0  0  0  0  0
    4.9354    1.3709   19.2080 C   0  0  0  0  0  0  0  0  0  0  0  0
    5.4455    1.0743   17.9174 C   0  0  0  0  0  0  0  0  0  0  0  0
    6.5078    0.3111   17.6944 N   0  0  0  0  0  0  0  0  0  0  0  0
    7.1350   -0.2045   18.7617 C   0  0  0  0  0  0  0  0  0  0  0  0
    6.1148    5.2144   22.4166 H   0  0  0  0  0  0  0  0  0  0  0  0
    7.6418    5.3504   24.9812 H   0  0  0  0  0  0  0  0  0  0  0  0
    6.0261    4.6013   24.7472 H   0  0  0  0  0  0  0  0  0  0  0  0
    6.7618    2.9051   22.1582 H   0  0  0  0  0  0  0  0  0  0  0  0
    8.4775    3.4239   22.0402 H   0  0  0  0  0  0  0  0  0  0  0  0
   10.5010    2.3960   24.7929 H   0  0  0  0  0  0  0  0  0  0  0  0
   10.4137    0.9295   25.8267 H   0  0  0  0  0  0  0  0  0  0  0  0
    8.8293   -0.9149   24.9812 H   0  0  0  0  0  0  0  0  0  0  0  0
    7.4460   -0.3776   23.9691 H   0  0  0  0  0  0  0  0  0  0  0  0
    9.1457   -1.8078   22.7362 H   0  0  0  0  0  0  0  0  0  0  0  0
   12.8930    1.7346   24.5266 H   0  0  0  0  0  0  0  0  0  0  0  0
   14.5029    0.5894   23.0634 H   0  0  0  0  0  0  0  0  0  0  0  0
   11.3751   -1.8890   21.5489 H   0  0  0  0  0  0  0  0  0  0  0  0
    7.1436   -1.2474   21.6960 H   0  0  0  0  0  0  0  0  0  0  0  0
    5.5592    0.6474   22.4934 H   0  0  0  0  0  0  0  0  0  0  0  0
    3.5814    2.0375   22.7767 H   0  0  0  0  0  0  0  0  0  0  0  0
    2.4552    3.0304   20.8297 H   0  0  0  0  0  0  0  0  0  0  0  0
    3.2887    2.6289   18.5767 H   0  0  0  0  0  0  0  0  0  0  0  0
    4.9371    1.4961   17.0630 H   0  0  0  0  0  0  0  0  0  0  0  0
    7.9989   -0.8257   18.5766 H   0  0  0  0  0  0  0  0  0  0  0  0
  1  2  3  0  0  0  0
  2  3  1  0  0  0  0
  3  4  1  0  0  0  0
  3  5  1  0  0  0  0
  3 34  1  0  0  0  0
  4  6  1  0  0  0  0
  4 35  1  0  0  0  0
  4 36  1  0  0  0  0
  5  6  1  0  0  0  0
  5 37  1  0  0  0  0
  5 38  1  0  0  0  0
  6  7  1  0  0  0  0
  7  8  2  0  0  0  0
  7  9  2  0  0  0  0
  7 10  1  0  0  0  0
 10 11  1  0  0  0  0
 10 12  1  0  0  0  0
 11 15  1  0  0  0  0
 11 39  1  0  0  0  0
 11 40  1  0  0  0  0
 12 13  1  0  0  0  0
 12 41  1  0  0  0  0
 12 42  1  0  0  0  0
 13 14  1  0  0  0  0
 13 21  1  0  0  0  0
 13 43  1  0  0  0  0
 14 15  2  0  0  0  0
 14 18  1  0  0  0  0
 15 16  1  0  0  0  0
 16 17  2  0  0  0  0
 16 44  1  0  0  0  0
 17 19  1  0  0  0  0
 17 45  1  0  0  0  0
 18 19  2  0  0  0  0
 18 46  1  0  0  0  0
 19 20  1  0  0  0  0
 21 22  2  0  0  0  0
 21 23  1  0  0  0  0
 23 24  1  0  0  0  0
 23 47  1  0  0  0  0
 24 25  2  0  0  0  0
 24 33  1  0  0  0  0
 25 26  1  0  0  0  0
 25 30  1  0  0  0  0
 26 27  2  0  0  0  0
 26 48  1  0  0  0  0
 27 28  1  0  0  0  0
 27 49  1  0  0  0  0
 28 29  2  0  0  0  0
 28 50  1  0  0  0  0
 29 30  1  0  0  0  0
 29 51  1  0  0  0  0
 30 31  2  0  0  0  0
 31 32  1  0  0  0  0
 31 52  1  0  0  0  0
 32 33  2  0  0  0  0
 33 53  1  0  0  0  0
M  END
> <compound_name>
EDJ-MED-1981ceba-4

> <provenance>
{"isomeric_smiles": "c1ccc2c(c1)cncc2NC(=O)[C@@H]3C[N@](Cc4c3cc(cc4)Cl)S(=O)(=O)N5CC(C5)C#N", "inchi": "InChI=1S/C23H20ClN5O3S/c24-18-6-5-17-13-29(33(31,32)28-11-15(8-25)12-28)14-21(20(17)7-18)23(30)27-22-10-26-9-16-3-1-2-4-19(16)22/h1-7,9-10,15,21H,11-14H2,(H,27,30)/t21-/m1/s1", "inchi_key": "JMLGBOOPVUWCHB-OAQYLSRUSA-N", "fixed_inchi": "InChI=1/C23H20ClN5O3S/c24-18-6-5-17-13-29(33(31,32)28-11-15(8-25)12-28)14-21(20(17)7-18)23(30)27-22-10-26-9-16-3-1-2-4-19(16)22/h1-7,9-10,15,21H,11-14H2,(H,27,30)/t21-/m1/s1/f/h27H", "fixed_inchikey": "JMLGBOOPVUWCHB-AXJFXLNJNA-N"}

> <data_format>
sdf

$$$$
