LIG(A-306)
  -OEChem-06042511423D

 52 56  0     1  0  0  0  0  0999 V2000
    8.6898    3.4010   26.3390 O   0  0  0  0  0  0  0  0  0  0  0  0
    7.8193    2.7407   25.7718 C   0  0  0  0  0  0  0  0  0  0  0  0
    6.5872    3.1687   25.4852 N   0  0  0  0  0  0  0  0  0  0  0  0
    5.6929    2.1340   24.9881 C   0  0  0  0  0  0  0  0  0  0  0  0
    6.3653    0.8382   25.4735 C   0  0  0  0  0  0  0  0  0  0  0  0
    7.8451    1.2388   25.5353 C   0  0  1  0  0  0  0  0  0  0  0  0
    8.7520    0.7914   24.4489 N   0  3  1  0  0  0  0  0  0  0  0  0
   10.1645    0.9997   24.7977 C   0  0  0  0  0  0  0  0  0  0  0  0
    8.5281   -0.6072   24.0519 C   0  0  0  0  0  0  0  0  0  0  0  0
    9.2592   -0.8981   22.7433 C   0  0  2  0  0  0  0  0  0  0  0  0
   10.7379   -0.6061   22.9085 C   0  0  0  0  0  0  0  0  0  0  0  0
   11.1441    0.3695   23.8304 C   0  0  0  0  0  0  0  0  0  0  0  0
   12.4928    0.7153   23.9009 C   0  0  0  0  0  0  0  0  0  0  0  0
   13.4274    0.1054   23.0877 C   0  0  0  0  0  0  0  0  0  0  0  0
   11.6914   -1.2541   22.1251 C   0  0  0  0  0  0  0  0  0  0  0  0
   13.0172   -0.8763   22.2158 C   0  0  0  0  0  0  0  0  0  0  0  0
   14.1765   -1.5953   21.1370 Cl  0  0  0  0  0  0  0  0  0  0  0  0
    8.6469   -0.0333   21.6387 C   0  0  0  0  0  0  0  0  0  0  0  0
    9.1400    1.0454   21.3000 O   0  0  0  0  0  0  0  0  0  0  0  0
    7.5337   -0.5531   21.0672 N   0  0  0  0  0  0  0  0  0  0  0  0
    6.7866   -0.0291   19.9890 C   0  0  0  0  0  0  0  0  0  0  0  0
    5.6303    0.7689   20.2682 C   0  0  0  0  0  0  0  0  0  0  0  0
    5.1150    0.9844   21.5714 C   0  0  0  0  0  0  0  0  0  0  0  0
    4.0026    1.7538   21.7694 C   0  0  0  0  0  0  0  0  0  0  0  0
    3.3557    2.3525   20.6985 C   0  0  0  0  0  0  0  0  0  0  0  0
    3.8121    2.1770   19.4245 C   0  0  0  0  0  0  0  0  0  0  0  0
    4.9544    1.3748   19.1713 C   0  0  0  0  0  0  0  0  0  0  0  0
    5.4576    1.1323   17.8710 C   0  0  0  0  0  0  0  0  0  0  0  0
    6.5160    0.3764   17.6100 N   0  0  0  0  0  0  0  0  0  0  0  0
    7.1530   -0.1792   18.6512 C   0  0  0  0  0  0  0  0  0  0  0  0
    6.3030    4.1203   25.6023 H   0  0  0  0  0  0  0  0  0  0  0  0
    4.6856    2.2420   25.4166 H   0  0  0  0  0  0  0  0  0  0  0  0
    5.6291    2.1598   23.8902 H   0  0  0  0  0  0  0  0  0  0  0  0
    5.9911    0.5428   26.4649 H   0  0  0  0  0  0  0  0  0  0  0  0
    6.2051    0.0156   24.7611 H   0  0  0  0  0  0  0  0  0  0  0  0
    8.2349    0.7954   26.4634 H   0  0  0  0  0  0  0  0  0  0  0  0
    8.5568    1.3608   23.6504 H   0  0  0  0  0  0  0  0  0  0  0  0
   10.3565    2.0824   24.8260 H   0  0  0  0  0  0  0  0  0  0  0  0
   10.3402    0.5700   25.7949 H   0  0  0  0  0  0  0  0  0  0  0  0
    8.9082   -1.2753   24.8386 H   0  0  0  0  0  0  0  0  0  0  0  0
    7.4504   -0.7793   23.9139 H   0  0  0  0  0  0  0  0  0  0  0  0
    9.1259   -1.9589   22.4844 H   0  0  0  0  0  0  0  0  0  0  0  0
   12.8116    1.4719   24.6025 H   0  0  0  0  0  0  0  0  0  0  0  0
   14.4666    0.3954   23.1355 H   0  0  0  0  0  0  0  0  0  0  0  0
   11.3960   -2.0456   21.4522 H   0  0  0  0  0  0  0  0  0  0  0  0
    7.2005   -1.4121   21.4561 H   0  0  0  0  0  0  0  0  0  0  0  0
    5.6085    0.5341   22.4199 H   0  0  0  0  0  0  0  0  0  0  0  0
    3.6234    1.8969   22.7705 H   0  0  0  0  0  0  0  0  0  0  0  0
    2.4826    2.9633   20.8745 H   0  0  0  0  0  0  0  0  0  0  0  0
    3.2991    2.6529   18.6018 H   0  0  0  0  0  0  0  0  0  0  0  0
    4.9473    1.5922   17.0377 H   0  0  0  0  0  0  0  0  0  0  0  0
    8.0173   -0.7905   18.4373 H   0  0  0  0  0  0  0  0  0  0  0  0
  1  2  2  0  0  0  0
  2  3  1  0  0  0  0
  2  6  1  0  0  0  0
  3  4  1  0  0  0  0
  3 31  1  0  0  0  0
  4  5  1  0  0  0  0
  4 32  1  0  0  0  0
  4 33  1  0  0  0  0
  5  6  1  0  0  0  0
  5 34  1  0  0  0  0
  5 35  1  0  0  0  0
  6  7  1  0  0  0  0
  6 36  1  0  0  0  0
  7  8  1  0  0  0  0
  7  9  1  0  0  0  0
  7 37  1  0  0  0  0
  8 12  1  0  0  0  0
  8 38  1  0  0  0  0
  8 39  1  0  0  0  0
  9 10  1  0  0  0  0
  9 40  1  0  0  0  0
  9 41  1  0  0  0  0
 10 11  1  0  0  0  0
 10 18  1  0  0  0  0
 10 42  1  0  0  0  0
 11 12  2  0  0  0  0
 11 15  1  0  0  0  0
 12 13  1  0  0  0  0
 13 14  2  0  0  0  0
 13 43  1  0  0  0  0
 14 16  1  0  0  0  0
 14 44  1  0  0  0  0
 15 16  2  0  0  0  0
 15 45  1  0  0  0  0
 16 17  1  0  0  0  0
 18 19  2  0  0  0  0
 18 20  1  0  0  0  0
 20 21  1  0  0  0  0
 20 46  1  0  0  0  0
 21 22  2  0  0  0  0
 21 30  1  0  0  0  0
 22 23  1  0  0  0  0
 22 27  1  0  0  0  0
 23 24  2  0  0  0  0
 23 47  1  0  0  0  0
 24 25  1  0  0  0  0
 24 48  1  0  0  0  0
 25 26  2  0  0  0  0
 25 49  1  0  0  0  0
 26 27  1  0  0  0  0
 26 50  1  0  0  0  0
 27 28  2  0  0  0  0
 28 29  1  0  0  0  0
 28 51  1  0  0  0  0
 29 30  2  0  0  0  0
 30 52  1  0  0  0  0
M  CHG  1   7   1
M  END
> <compound_name>
EDJ-MED-12c4873b-5

> <provenance>
{"isomeric_smiles": "c1ccc2c(c1)cncc2NC(=O)[C@@H]3C[N@H+](Cc4c3cc(cc4)Cl)[C@@H]5CCNC5=O", "inchi": "InChI=1S/C23H21ClN4O2/c24-16-6-5-15-12-28(21-7-8-26-23(21)30)13-19(18(15)9-16)22(29)27-20-11-25-10-14-3-1-2-4-17(14)20/h1-6,9-11,19,21H,7-8,12-13H2,(H,26,30)(H,27,29)/p+1/t19-,21-/m1/s1", "inchi_key": "TUGUABFGTODCQJ-TZIWHRDSSA-O", "fixed_inchi": "InChI=1/C23H21ClN4O2/c24-16-6-5-15-12-28(21-7-8-26-23(21)30)13-19(18(15)9-16)22(29)27-20-11-25-10-14-3-1-2-4-17(14)20/h1-6,9-11,19,21H,7-8,12-13H2,(H,26,30)(H,27,29)/p+1/t19-,21-/m1/s1/fC23H22ClN4O2/h26-28H/q+1", "fixed_inchikey": "TUGUABFGTODCQJ-ZCQQPZJYNA-O"}

> <data_format>
sdf

$$$$
