LIG(A-306)
  -OEChem-06042511403D

 51 54  0     1  0  0  0  0  0999 V2000
    6.1036    2.8057   24.6099 O   0  0  0  0  0  0  0  0  0  0  0  0
    4.8037    2.2118   24.6951 S   0  0  0  0  0  0  0  0  0  0  0  0
    4.6970    0.8001   24.8796 O   0  0  0  0  0  0  0  0  0  0  0  0
    3.9190    3.0069   25.9866 C   0  0  0  0  0  0  0  0  0  0  0  0
    4.0184    2.5694   23.3122 N   0  0  0  0  0  0  0  0  0  0  0  0
    4.3792    2.1302   21.9956 C   0  0  0  0  0  0  0  0  0  0  0  0
    3.5991    2.5374   20.9137 C   0  0  0  0  0  0  0  0  0  0  0  0
    3.9209    2.1753   19.6400 C   0  0  0  0  0  0  0  0  0  0  0  0
    5.4870    1.3319   21.7799 C   0  0  0  0  0  0  0  0  0  0  0  0
    5.8547    0.9257   20.4722 C   0  0  0  0  0  0  0  0  0  0  0  0
    5.0547    1.3659   19.3773 C   0  0  0  0  0  0  0  0  0  0  0  0
    5.4494    0.9857   18.0715 C   0  0  0  0  0  0  0  0  0  0  0  0
    6.5202    0.2512   17.8007 N   0  0  0  0  0  0  0  0  0  0  0  0
    7.2652   -0.1610   18.8367 C   0  0  0  0  0  0  0  0  0  0  0  0
    7.0065    0.1232   20.1775 C   0  0  0  0  0  0  0  0  0  0  0  0
    7.8305   -0.3099   21.2434 N   0  0  0  0  0  0  0  0  0  0  0  0
    8.9729    0.2578   21.7004 C   0  0  0  0  0  0  0  0  0  0  0  0
    9.4764    1.2661   21.2222 O   0  0  0  0  0  0  0  0  0  0  0  0
    9.6201   -0.4461   22.9419 C   0  0  1  0  0  0  0  0  0  0  0  0
    9.3439   -1.8245   22.6905 O   0  0  0  0  0  0  0  0  0  0  0  0
    9.7729   -2.7648   23.6857 C   0  0  0  0  0  0  0  0  0  0  0  0
   11.1152   -0.2150   22.9801 C   0  0  0  0  0  0  0  0  0  0  0  0
   11.9503   -0.8455   22.0624 C   0  0  0  0  0  0  0  0  0  0  0  0
   13.2882   -0.5125   22.0225 C   0  0  0  0  0  0  0  0  0  0  0  0
   14.3222   -1.3494   20.8949 Cl  0  0  0  0  0  0  0  0  0  0  0  0
   13.8290    0.4519   22.8454 C   0  0  0  0  0  0  0  0  0  0  0  0
   13.0119    1.0864   23.7701 C   0  0  0  0  0  0  0  0  0  0  0  0
   11.6690    0.7415   23.8400 C   0  0  0  0  0  0  0  0  0  0  0  0
   10.9509    1.3482   24.8417 O   0  0  0  0  0  0  0  0  0  0  0  0
    9.5267    1.4397   24.5949 C   0  0  0  0  0  0  0  0  0  0  0  0
    8.9303    0.1030   24.1987 C   0  0  0  0  0  0  0  0  0  0  0  0
    2.9150    2.5652   26.0699 H   0  0  0  0  0  0  0  0  0  0  0  0
    4.4580    2.8737   26.9362 H   0  0  0  0  0  0  0  0  0  0  0  0
    3.8298    4.0802   25.7630 H   0  0  0  0  0  0  0  0  0  0  0  0
    3.0309    2.6662   23.4362 H   0  0  0  0  0  0  0  0  0  0  0  0
    2.7264    3.1493   21.0880 H   0  0  0  0  0  0  0  0  0  0  0  0
    3.3036    2.5096   18.8193 H   0  0  0  0  0  0  0  0  0  0  0  0
    6.0827    1.0120   22.6221 H   0  0  0  0  0  0  0  0  0  0  0  0
    4.8396    1.3148   17.2432 H   0  0  0  0  0  0  0  0  0  0  0  0
    8.1353   -0.7613   18.6151 H   0  0  0  0  0  0  0  0  0  0  0  0
    7.5327   -1.1380   21.7185 H   0  0  0  0  0  0  0  0  0  0  0  0
    9.5004   -3.7828   23.3706 H   0  0  0  0  0  0  0  0  0  0  0  0
   10.8642   -2.6983   23.8065 H   0  0  0  0  0  0  0  0  0  0  0  0
    9.2832   -2.5341   24.6433 H   0  0  0  0  0  0  0  0  0  0  0  0
   11.5540   -1.5893   21.3870 H   0  0  0  0  0  0  0  0  0  0  0  0
   14.8750    0.7103   22.7715 H   0  0  0  0  0  0  0  0  0  0  0  0
   13.4164    1.8408   24.4287 H   0  0  0  0  0  0  0  0  0  0  0  0
    9.0297    1.7925   25.5107 H   0  0  0  0  0  0  0  0  0  0  0  0
    9.3529    2.1607   23.7824 H   0  0  0  0  0  0  0  0  0  0  0  0
    9.0629   -0.6110   25.0249 H   0  0  0  0  0  0  0  0  0  0  0  0
    7.8572    0.2324   23.9946 H   0  0  0  0  0  0  0  0  0  0  0  0
  1  2  2  0  0  0  0
  2  3  2  0  0  0  0
  2  4  1  0  0  0  0
  2  5  1  0  0  0  0
  4 32  1  0  0  0  0
  4 33  1  0  0  0  0
  4 34  1  0  0  0  0
  5  6  1  0  0  0  0
  5 35  1  0  0  0  0
  6  7  2  0  0  0  0
  6  9  1  0  0  0  0
  7  8  1  0  0  0  0
  7 36  1  0  0  0  0
  8 11  2  0  0  0  0
  8 37  1  0  0  0  0
  9 10  2  0  0  0  0
  9 38  1  0  0  0  0
 10 11  1  0  0  0  0
 10 15  1  0  0  0  0
 11 12  1  0  0  0  0
 12 13  2  0  0  0  0
 12 39  1  0  0  0  0
 13 14  1  0  0  0  0
 14 15  2  0  0  0  0
 14 40  1  0  0  0  0
 15 16  1  0  0  0  0
 16 17  1  0  0  0  0
 16 41  1  0  0  0  0
 17 18  2  0  0  0  0
 17 19  1  0  0  0  0
 19 20  1  0  0  0  0
 19 22  1  0  0  0  0
 19 31  1  0  0  0  0
 20 21  1  0  0  0  0
 21 42  1  0  0  0  0
 21 43  1  0  0  0  0
 21 44  1  0  0  0  0
 22 23  2  0  0  0  0
 22 28  1  0  0  0  0
 23 24  1  0  0  0  0
 23 45  1  0  0  0  0
 24 25  1  0  0  0  0
 24 26  2  0  0  0  0
 26 27  1  0  0  0  0
 26 46  1  0  0  0  0
 27 28  2  0  0  0  0
 27 47  1  0  0  0  0
 28 29  1  0  0  0  0
 29 30  1  0  0  0  0
 30 31  1  0  0  0  0
 30 48  1  0  0  0  0
 30 49  1  0  0  0  0
 31 50  1  0  0  0  0
 31 51  1  0  0  0  0
M  END
> <compound_name>
EDG-MED-10fcb19e-1

> <provenance>
{"isomeric_smiles": "CO[C@]1(CCOc2c1cc(cc2)Cl)C(=O)Nc3cncc4c3cc(cc4)NS(=O)(=O)C", "inchi": "InChI=1S/C21H20ClN3O5S/c1-29-21(7-8-30-19-6-4-14(22)9-17(19)21)20(26)24-18-12-23-11-13-3-5-15(10-16(13)18)25-31(2,27)28/h3-6,9-12,25H,7-8H2,1-2H3,(H,24,26)/t21-/m0/s1", "inchi_key": "OANVIGJLLAVHQQ-NRFANRHFSA-N", "fixed_inchi": "InChI=1/C21H20ClN3O5S/c1-29-21(7-8-30-19-6-4-14(22)9-17(19)21)20(26)24-18-12-23-11-13-3-5-15(10-16(13)18)25-31(2,27)28/h3-6,9-12,25H,7-8H2,1-2H3,(H,24,26)/t21-/m0/s1/f/h24H", "fixed_inchikey": "OANVIGJLLAVHQQ-AATXMJDANA-N"}

> <data_format>
sdf

$$$$
