LIG(A-305)
  -OEChem-06042511333D

 33 34  0     1  0  0  0  0  0999 V2000
    7.4926   -0.5583   20.9088 N   0  0  0  0  0  0  0  0  0  0  0  0
   12.4076    0.7877   23.7908 N   0  0  0  0  0  0  0  0  0  0  0  0
    9.1346   -0.8203   22.6848 C   0  0  1  0  0  0  0  0  0  0  0  0
   13.2926    0.1157   23.0428 C   0  0  0  0  0  0  0  0  0  0  0  0
    5.1226    1.0187   21.5249 C   0  0  0  0  0  0  0  0  0  0  0  0
    8.5886   -0.0313   21.4918 C   0  0  0  0  0  0  0  0  0  0  0  0
    4.9435    1.3457   19.0359 C   0  0  0  0  0  0  0  0  0  0  0  0
    5.4695    1.2088   17.7669 C   0  0  0  0  0  0  0  0  0  0  0  0
    7.2455   -0.0112   18.5318 C   0  0  0  0  0  0  0  0  0  0  0  0
   11.1126    0.4607   23.6748 C   0  0  0  0  0  0  0  0  0  0  0  0
   11.5576   -1.2323   22.0807 C   0  0  0  0  0  0  0  0  0  0  0  0
   10.6236   -0.5283   22.8308 C   0  0  0  0  0  0  0  0  0  0  0  0
   12.8936   -0.9093   22.1887 C   0  0  0  0  0  0  0  0  0  0  0  0
    8.3316   -0.5654   23.9608 C   0  0  0  0  0  0  0  0  0  0  0  0
    6.6095    0.5588   17.5038 N   0  0  0  0  0  0  0  0  0  0  0  0
    9.1236    0.9957   21.0978 O   0  0  0  0  0  0  0  0  0  0  0  0
    5.6056    0.7757   20.1178 C   0  0  0  0  0  0  0  0  0  0  0  0
    6.7886    0.0557   19.8478 C   0  0  0  0  0  0  0  0  0  0  0  0
   14.0636   -1.8083   21.2607 Cl  0  0  0  0  0  0  0  0  0  0  0  0
    7.1574   -1.4373   21.2479 H   0  0  0  0  0  0  0  0  0  0  0  0
    9.0327   -1.8886   22.4430 H   0  0  0  0  0  0  0  0  0  0  0  0
   14.3393    0.3747   23.1033 H   0  0  0  0  0  0  0  0  0  0  0  0
    4.2362    1.6697   21.5016 H   0  0  0  0  0  0  0  0  0  0  0  0
    4.8599    0.0586   21.9932 H   0  0  0  0  0  0  0  0  0  0  0  0
    5.9192    1.5049   22.1070 H   0  0  0  0  0  0  0  0  0  0  0  0
    4.0241    1.8918   19.1873 H   0  0  0  0  0  0  0  0  0  0  0  0
    4.9316    1.6504   16.9410 H   0  0  0  0  0  0  0  0  0  0  0  0
    8.1596   -0.5510   18.3334 H   0  0  0  0  0  0  0  0  0  0  0  0
   10.4007    1.0034   24.2790 H   0  0  0  0  0  0  0  0  0  0  0  0
   11.2401   -2.0250   21.4194 H   0  0  0  0  0  0  0  0  0  0  0  0
    8.7597   -1.1515   24.7874 H   0  0  0  0  0  0  0  0  0  0  0  0
    8.3716    0.5050   24.2113 H   0  0  0  0  0  0  0  0  0  0  0  0
    7.2855   -0.8659   23.8017 H   0  0  0  0  0  0  0  0  0  0  0  0
  1  6  1  0  0  0  0
  1 18  1  0  0  0  0
  1 20  1  0  0  0  0
  2  4  2  0  0  0  0
  2 10  1  0  0  0  0
  3  6  1  0  0  0  0
  3 12  1  0  0  0  0
  3 14  1  0  0  0  0
  3 21  1  0  0  0  0
  4 13  1  0  0  0  0
  4 22  1  0  0  0  0
  5 17  1  0  0  0  0
  5 23  1  0  0  0  0
  5 24  1  0  0  0  0
  5 25  1  0  0  0  0
  6 16  2  0  0  0  0
  7  8  2  0  0  0  0
  7 17  1  0  0  0  0
  7 26  1  0  0  0  0
  8 15  1  0  0  0  0
  8 27  1  0  0  0  0
  9 15  2  0  0  0  0
  9 18  1  0  0  0  0
  9 28  1  0  0  0  0
 10 12  2  0  0  0  0
 10 29  1  0  0  0  0
 11 12  1  0  0  0  0
 11 13  2  0  0  0  0
 11 30  1  0  0  0  0
 13 19  1  0  0  0  0
 14 31  1  0  0  0  0
 14 32  1  0  0  0  0
 14 33  1  0  0  0  0
 17 18  2  0  0  0  0
M  END
> <compound_name>
TRY-UNI-2eddb1ff-3

> <provenance>
{"isomeric_smiles": "Cc1ccncc1NC(=O)[C@H](C)c2cc(cnc2)Cl", "inchi": "InChI=1S/C14H14ClN3O/c1-9-3-4-16-8-13(9)18-14(19)10(2)11-5-12(15)7-17-6-11/h3-8,10H,1-2H3,(H,18,19)/t10-/m1/s1", "inchi_key": "SEFKQYGCOOMXHK-SNVBAGLBSA-N", "fixed_inchi": "InChI=1/C14H14ClN3O/c1-9-3-4-16-8-13(9)18-14(19)10(2)11-5-12(15)7-17-6-11/h3-8,10H,1-2H3,(H,18,19)/t10-/m1/s1/f/h18H", "fixed_inchikey": "SEFKQYGCOOMXHK-UECGHYFNNA-N"}

> <data_format>
sdf

$$$$
