LIG(A-305)
  -OEChem-06042511363D

 46 47  0     0  0  0  0  0  0999 V2000
    6.2172    1.3897   24.6098 N   0  0  0  0  0  0  0  0  0  0  0  0
    6.1163    0.7747   25.5598 C   0  0  0  0  0  0  0  0  0  0  0  0
    6.0474   -0.0422   26.7768 C   0  0  0  0  0  0  0  0  0  0  0  0
    4.7523   -0.8592   26.7270 C   0  0  0  0  0  0  0  0  0  0  0  0
    6.0476    0.8998   27.9858 C   0  0  0  0  0  0  0  0  0  0  0  0
    7.2923   -0.9483   26.8197 C   0  0  0  0  0  0  0  0  0  0  0  0
    8.5574   -0.2524   26.6955 N   0  0  0  0  0  0  0  0  0  0  0  0
    9.3542   -0.2145   25.5624 C   0  0  0  0  0  0  0  0  0  0  0  0
   10.5733    0.4554   25.5832 C   0  0  0  0  0  0  0  0  0  0  0  0
   11.3681    0.4244   24.4531 C   0  0  0  0  0  0  0  0  0  0  0  0
   12.9022    1.2483   24.4779 Cl  0  0  0  0  0  0  0  0  0  0  0  0
   10.9749   -0.2266   23.3012 C   0  0  0  0  0  0  0  0  0  0  0  0
    8.9410   -0.8585   24.3995 C   0  0  0  0  0  0  0  0  0  0  0  0
    9.7379   -0.8595   23.2623 C   0  0  0  0  0  0  0  0  0  0  0  0
    9.2316   -1.4805   21.9814 C   0  0  0  0  0  0  0  0  0  0  0  0
    8.4716   -0.4555   21.1645 C   0  0  0  0  0  0  0  0  0  0  0  0
    8.9586    0.6335   20.8744 O   0  0  0  0  0  0  0  0  0  0  0  0
    7.2435   -0.8434   20.7617 N   0  0  0  0  0  0  0  0  0  0  0  0
    6.5584   -0.1104   19.7678 C   0  0  0  0  0  0  0  0  0  0  0  0
    5.5185    0.7567   20.1209 C   0  0  0  0  0  0  0  0  0  0  0  0
    5.1307    0.9927   21.5569 C   0  0  0  0  0  0  0  0  0  0  0  0
    6.9682   -0.1675   18.4377 C   0  0  0  0  0  0  0  0  0  0  0  0
    6.4281    0.5856   17.4718 N   0  0  0  0  0  0  0  0  0  0  0  0
    5.3972    1.3696   17.8089 C   0  0  0  0  0  0  0  0  0  0  0  0
    4.9134    1.4787   19.0980 C   0  0  0  0  0  0  0  0  0  0  0  0
    4.6761   -1.4820   27.6305 H   0  0  0  0  0  0  0  0  0  0  0  0
    3.8906   -0.1773   26.6781 H   0  0  0  0  0  0  0  0  0  0  0  0
    4.7602   -1.5047   25.8363 H   0  0  0  0  0  0  0  0  0  0  0  0
    5.9964    0.3085   28.9120 H   0  0  0  0  0  0  0  0  0  0  0  0
    6.9704    1.4985   27.9838 H   0  0  0  0  0  0  0  0  0  0  0  0
    5.1763    1.5688   27.9293 H   0  0  0  0  0  0  0  0  0  0  0  0
    7.2908   -1.4861   27.7793 H   0  0  0  0  0  0  0  0  0  0  0  0
    7.2175   -1.6713   25.9940 H   0  0  0  0  0  0  0  0  0  0  0  0
    8.8845    0.2448   27.4991 H   0  0  0  0  0  0  0  0  0  0  0  0
   10.8924    0.9897   26.4658 H   0  0  0  0  0  0  0  0  0  0  0  0
   11.6229   -0.2441   22.4373 H   0  0  0  0  0  0  0  0  0  0  0  0
    7.9871   -1.3645   24.3814 H   0  0  0  0  0  0  0  0  0  0  0  0
   10.0857   -1.8507   21.3953 H   0  0  0  0  0  0  0  0  0  0  0  0
    8.5627   -2.3193   22.2244 H   0  0  0  0  0  0  0  0  0  0  0  0
    6.8175   -1.6518   21.1679 H   0  0  0  0  0  0  0  0  0  0  0  0
    5.9904    1.4035   22.1067 H   0  0  0  0  0  0  0  0  0  0  0  0
    4.2944    1.7062   21.5983 H   0  0  0  0  0  0  0  0  0  0  0  0
    4.8236    0.0409   22.0149 H   0  0  0  0  0  0  0  0  0  0  0  0
    7.7601   -0.8524   18.1730 H   0  0  0  0  0  0  0  0  0  0  0  0
    4.9185    1.9474   17.0322 H   0  0  0  0  0  0  0  0  0  0  0  0
    4.0710    2.1203   19.3101 H   0  0  0  0  0  0  0  0  0  0  0  0
  1  2  3  0  0  0  0
  2  3  1  0  0  0  0
  3  4  1  0  0  0  0
  3  5  1  0  0  0  0
  3  6  1  0  0  0  0
  4 26  1  0  0  0  0
  4 27  1  0  0  0  0
  4 28  1  0  0  0  0
  5 29  1  0  0  0  0
  5 30  1  0  0  0  0
  5 31  1  0  0  0  0
  6  7  1  0  0  0  0
  6 32  1  0  0  0  0
  6 33  1  0  0  0  0
  7  8  1  0  0  0  0
  7 34  1  0  0  0  0
  8  9  2  0  0  0  0
  8 13  1  0  0  0  0
  9 10  1  0  0  0  0
  9 35  1  0  0  0  0
 10 11  1  0  0  0  0
 10 12  2  0  0  0  0
 12 14  1  0  0  0  0
 12 36  1  0  0  0  0
 13 14  2  0  0  0  0
 13 37  1  0  0  0  0
 14 15  1  0  0  0  0
 15 16  1  0  0  0  0
 15 38  1  0  0  0  0
 15 39  1  0  0  0  0
 16 17  2  0  0  0  0
 16 18  1  0  0  0  0
 18 19  1  0  0  0  0
 18 40  1  0  0  0  0
 19 20  2  0  0  0  0
 19 22  1  0  0  0  0
 20 21  1  0  0  0  0
 20 25  1  0  0  0  0
 21 41  1  0  0  0  0
 21 42  1  0  0  0  0
 21 43  1  0  0  0  0
 22 23  2  0  0  0  0
 22 44  1  0  0  0  0
 23 24  1  0  0  0  0
 24 25  2  0  0  0  0
 24 45  1  0  0  0  0
 25 46  1  0  0  0  0
M  END
> <compound_name>
MAT-POS-044491d2-7

> <provenance>
{"isomeric_smiles": "Cc1ccncc1NC(=O)Cc2cc(cc(c2)Cl)NCC(C)(C)C#N", "inchi": "InChI=1S/C19H21ClN4O/c1-13-4-5-22-10-17(13)24-18(25)8-14-6-15(20)9-16(7-14)23-12-19(2,3)11-21/h4-7,9-10,23H,8,12H2,1-3H3,(H,24,25)", "inchi_key": "UELOTNVORDVOMK-UHFFFAOYSA-N", "fixed_inchi": "InChI=1/C19H21ClN4O/c1-13-4-5-22-10-17(13)24-18(25)8-14-6-15(20)9-16(7-14)23-12-19(2,3)11-21/h4-7,9-10,23H,8,12H2,1-3H3,(H,24,25)/f/h24H", "fixed_inchikey": "UELOTNVORDVOMK-LQFNOIFHNA-N"}

> <data_format>
sdf

$$$$
