LIG(A-306)
  -OEChem-06042511423D

 53 57  0     1  0  0  0  0  0999 V2000
   10.5837    3.1432   24.4341 O   0  0  0  0  0  0  0  0  0  0  0  0
   10.2531    1.9890   24.2144 C   0  0  0  0  0  0  0  0  0  0  0  0
    8.9723    1.5637   24.4205 N   0  0  0  0  0  0  0  0  0  0  0  0
    7.9944    2.4837   25.0434 C   0  0  0  0  0  0  0  0  0  0  0  0
    7.2376    1.9474   26.2259 C   0  0  0  0  0  0  0  0  0  0  0  0
    8.3098    2.9590   26.4348 C   0  0  0  0  0  0  0  0  0  0  0  0
    7.2343    3.4649   24.1496 C   0  0  0  0  0  0  0  0  0  0  0  0
    6.2366    4.0117   24.5986 O   0  0  0  0  0  0  0  0  0  0  0  0
    7.6944    3.6821   22.9215 N   0  0  0  0  0  0  0  0  0  0  0  0
    7.0291    4.6001   22.0183 C   0  0  0  0  0  0  0  0  0  0  0  0
   11.1739    1.0323   23.5793 C   0  0  0  0  0  0  0  0  0  0  0  0
   12.5266    1.3559   23.4686 C   0  0  0  0  0  0  0  0  0  0  0  0
   13.4055    0.4811   22.8579 C   0  0  0  0  0  0  0  0  0  0  0  0
   12.9259   -0.7074   22.3541 C   0  0  0  0  0  0  0  0  0  0  0  0
   14.0333   -1.8099   21.5932 Cl  0  0  0  0  0  0  0  0  0  0  0  0
   11.5842   -1.0338   22.4078 C   0  0  0  0  0  0  0  0  0  0  0  0
   10.6852   -0.1468   22.9995 C   0  0  0  0  0  0  0  0  0  0  0  0
    9.1967   -0.4012   22.9176 C   0  0  1  0  0  0  0  0  0  0  0  0
    8.5072    0.1851   24.1487 C   0  0  0  0  0  0  0  0  0  0  0  0
    8.6238    0.2763   21.6681 C   0  0  0  0  0  0  0  0  0  0  0  0
    9.0510    1.3575   21.2514 O   0  0  0  0  0  0  0  0  0  0  0  0
    7.5742   -0.3736   21.1051 N   0  0  0  0  0  0  0  0  0  0  0  0
    6.7798    0.0406   20.0124 C   0  0  0  0  0  0  0  0  0  0  0  0
    5.6647    0.8927   20.2729 C   0  0  0  0  0  0  0  0  0  0  0  0
    5.1687    1.1642   21.5735 C   0  0  0  0  0  0  0  0  0  0  0  0
    4.0915    1.9836   21.7569 C   0  0  0  0  0  0  0  0  0  0  0  0
    3.4624    2.5804   20.6740 C   0  0  0  0  0  0  0  0  0  0  0  0
    3.8976    2.3469   19.4007 C   0  0  0  0  0  0  0  0  0  0  0  0
    4.9947    1.4838   19.1631 C   0  0  0  0  0  0  0  0  0  0  0  0
    5.4406    1.1374   17.8622 C   0  0  0  0  0  0  0  0  0  0  0  0
    6.4418    0.3014   17.6177 N   0  0  0  0  0  0  0  0  0  0  0  0
    7.0859   -0.2183   18.6740 C   0  0  0  0  0  0  0  0  0  0  0  0
    6.1838    2.2253   26.3754 H   0  0  0  0  0  0  0  0  0  0  0  0
    7.3923    0.9081   26.5515 H   0  0  0  0  0  0  0  0  0  0  0  0
    8.0470    3.9832   26.7380 H   0  0  0  0  0  0  0  0  0  0  0  0
    9.2555    2.6660   26.9141 H   0  0  0  0  0  0  0  0  0  0  0  0
    8.5164    3.2023   22.6145 H   0  0  0  0  0  0  0  0  0  0  0  0
    7.5709    4.6309   21.0614 H   0  0  0  0  0  0  0  0  0  0  0  0
    5.9975    4.2602   21.8446 H   0  0  0  0  0  0  0  0  0  0  0  0
    7.0139    5.6059   22.4635 H   0  0  0  0  0  0  0  0  0  0  0  0
   12.8886    2.2944   23.8618 H   0  0  0  0  0  0  0  0  0  0  0  0
   14.4543    0.7264   22.7771 H   0  0  0  0  0  0  0  0  0  0  0  0
   11.2345   -1.9683   21.9947 H   0  0  0  0  0  0  0  0  0  0  0  0
    9.0060   -1.4835   22.8688 H   0  0  0  0  0  0  0  0  0  0  0  0
    7.4207    0.2007   23.9775 H   0  0  0  0  0  0  0  0  0  0  0  0
    8.7320   -0.4472   25.0203 H   0  0  0  0  0  0  0  0  0  0  0  0
    7.3333   -1.2539   21.5136 H   0  0  0  0  0  0  0  0  0  0  0  0
    5.6494    0.7168   22.4309 H   0  0  0  0  0  0  0  0  0  0  0  0
    3.7253    2.1690   22.7559 H   0  0  0  0  0  0  0  0  0  0  0  0
    2.6204    3.2361   20.8395 H   0  0  0  0  0  0  0  0  0  0  0  0
    3.4012    2.8242   18.5687 H   0  0  0  0  0  0  0  0  0  0  0  0
    4.9340    1.5814   17.0182 H   0  0  0  0  0  0  0  0  0  0  0  0
    7.9069   -0.8907   18.4734 H   0  0  0  0  0  0  0  0  0  0  0  0
  1  2  2  0  0  0  0
  2  3  1  0  0  0  0
  2 11  1  0  0  0  0
  3  4  1  0  0  0  0
  3 19  1  0  0  0  0
  4  5  1  0  0  0  0
  4  6  1  0  0  0  0
  4  7  1  0  0  0  0
  5  6  1  0  0  0  0
  5 33  1  0  0  0  0
  5 34  1  0  0  0  0
  6 35  1  0  0  0  0
  6 36  1  0  0  0  0
  7  8  2  0  0  0  0
  7  9  1  0  0  0  0
  9 10  1  0  0  0  0
  9 37  1  0  0  0  0
 10 38  1  0  0  0  0
 10 39  1  0  0  0  0
 10 40  1  0  0  0  0
 11 12  2  0  0  0  0
 11 17  1  0  0  0  0
 12 13  1  0  0  0  0
 12 41  1  0  0  0  0
 13 14  2  0  0  0  0
 13 42  1  0  0  0  0
 14 15  1  0  0  0  0
 14 16  1  0  0  0  0
 16 17  2  0  0  0  0
 16 43  1  0  0  0  0
 17 18  1  0  0  0  0
 18 19  1  0  0  0  0
 18 20  1  0  0  0  0
 18 44  1  0  0  0  0
 19 45  1  0  0  0  0
 19 46  1  0  0  0  0
 20 21  2  0  0  0  0
 20 22  1  0  0  0  0
 22 23  1  0  0  0  0
 22 47  1  0  0  0  0
 23 24  2  0  0  0  0
 23 32  1  0  0  0  0
 24 25  1  0  0  0  0
 24 29  1  0  0  0  0
 25 26  2  0  0  0  0
 25 48  1  0  0  0  0
 26 27  1  0  0  0  0
 26 49  1  0  0  0  0
 27 28  2  0  0  0  0
 27 50  1  0  0  0  0
 28 29  1  0  0  0  0
 28 51  1  0  0  0  0
 29 30  2  0  0  0  0
 30 31  1  0  0  0  0
 30 52  1  0  0  0  0
 31 32  2  0  0  0  0
 32 53  1  0  0  0  0
M  END
> <compound_name>
EDJ-MED-12c4873b-2

> <provenance>
{"isomeric_smiles": "CNC(=O)C1(CC1)N2C[C@H](c3cc(ccc3C2=O)Cl)C(=O)Nc4cncc5c4cccc5", "inchi": "InChI=1S/C24H21ClN4O3/c1-26-23(32)24(8-9-24)29-13-19(18-10-15(25)6-7-17(18)22(29)31)21(30)28-20-12-27-11-14-4-2-3-5-16(14)20/h2-7,10-12,19H,8-9,13H2,1H3,(H,26,32)(H,28,30)/t19-/m1/s1", "inchi_key": "IDFXYIJLVZRFSF-LJQANCHMSA-N", "fixed_inchi": "InChI=1/C24H21ClN4O3/c1-26-23(32)24(8-9-24)29-13-19(18-10-15(25)6-7-17(18)22(29)31)21(30)28-20-12-27-11-14-4-2-3-5-16(14)20/h2-7,10-12,19H,8-9,13H2,1H3,(H,26,32)(H,28,30)/t19-/m1/s1/f/h26,28H", "fixed_inchikey": "IDFXYIJLVZRFSF-IBTZCTHDNA-N"}

> <data_format>
sdf

$$$$
