LIG(A-303)
  -OEChem-06042511393D

 50 54  0     1  0  0  0  0  0999 V2000
    7.1227    2.4190   25.4557 O   0  0  0  0  0  0  0  0  0  0  0  0
    6.8787    1.0200   25.2556 S   0  0  0  0  0  0  0  0  0  0  0  0
    5.6357    0.6019   24.6768 O   0  0  0  0  0  0  0  0  0  0  0  0
    7.0180    0.2179   26.8436 C   0  0  0  0  0  0  0  0  0  0  0  0
    6.0371   -0.8571   27.1977 C   0  0  0  0  0  0  0  0  0  0  0  0
    5.9801    0.4558   27.8967 C   0  0  0  0  0  0  0  0  0  0  0  0
    8.1356    0.3651   24.4265 N   0  0  1  0  0  0  0  0  0  0  0  0
    9.4897    0.6971   24.8943 C   0  0  0  0  0  0  0  0  0  0  0  0
    7.9777   -1.0029   23.9014 C   0  0  0  0  0  0  0  0  0  0  0  0
    8.8125   -1.1018   22.6243 C   0  0  2  0  0  0  0  0  0  0  0  0
   10.2515   -0.7217   22.9091 C   0  0  0  0  0  0  0  0  0  0  0  0
   10.5516    0.1762   23.9461 C   0  0  0  0  0  0  0  0  0  0  0  0
   11.8796    0.5493   24.1560 C   0  0  0  0  0  0  0  0  0  0  0  0
   12.9005    0.0254   23.3848 C   0  0  0  0  0  0  0  0  0  0  0  0
   11.2874   -1.2597   22.1440 C   0  0  0  0  0  0  0  0  0  0  0  0
   12.5914   -0.8796   22.3948 C   0  0  0  0  0  0  0  0  0  0  0  0
   13.8714   -1.5515   21.4186 Cl  0  0  0  0  0  0  0  0  0  0  0  0
    8.2803   -0.1758   21.5274 C   0  0  0  0  0  0  0  0  0  0  0  0
    8.8752    0.8472   21.1874 O   0  0  0  0  0  0  0  0  0  0  0  0
    7.1242   -0.5908   20.9536 N   0  0  0  0  0  0  0  0  0  0  0  0
    6.4321    0.0032   19.8777 C   0  0  0  0  0  0  0  0  0  0  0  0
    5.3280    0.8711   20.1589 C   0  0  0  0  0  0  0  0  0  0  0  0
    4.8152    1.1000   21.4629 C   0  0  0  0  0  0  0  0  0  0  0  0
    3.7692    1.9549   21.6661 C   0  0  0  0  0  0  0  0  0  0  0  0
    3.1840    2.6229   20.5992 C   0  0  0  0  0  0  0  0  0  0  0  0
    3.6378    2.4320   19.3251 C   0  0  0  0  0  0  0  0  0  0  0  0
    4.7159    1.5501   19.0680 C   0  0  0  0  0  0  0  0  0  0  0  0
    5.2237    1.3052   17.7729 C   0  0  0  0  0  0  0  0  0  0  0  0
    6.2377    0.4932   17.5107 N   0  0  0  0  0  0  0  0  0  0  0  0
    6.8149   -0.1328   18.5436 C   0  0  0  0  0  0  0  0  0  0  0  0
    8.0602    0.0890   27.1707 H   0  0  0  0  0  0  0  0  0  0  0  0
    5.2460   -1.1354   26.4858 H   0  0  0  0  0  0  0  0  0  0  0  0
    6.3755   -1.7532   27.7384 H   0  0  0  0  0  0  0  0  0  0  0  0
    5.1469    1.1469   27.7009 H   0  0  0  0  0  0  0  0  0  0  0  0
    6.2764    0.5289   28.9536 H   0  0  0  0  0  0  0  0  0  0  0  0
    9.5833    1.7906   24.9690 H   0  0  0  0  0  0  0  0  0  0  0  0
    9.6449    0.2472   25.8859 H   0  0  0  0  0  0  0  0  0  0  0  0
    8.3353   -1.7334   24.6420 H   0  0  0  0  0  0  0  0  0  0  0  0
    6.9192   -1.1988   23.6749 H   0  0  0  0  0  0  0  0  0  0  0  0
    8.7813   -2.1389   22.2590 H   0  0  0  0  0  0  0  0  0  0  0  0
   12.1142    1.2600   24.9347 H   0  0  0  0  0  0  0  0  0  0  0  0
   13.9248    0.3216   23.5566 H   0  0  0  0  0  0  0  0  0  0  0  0
   11.0705   -1.9696   21.3596 H   0  0  0  0  0  0  0  0  0  0  0  0
    6.7131   -1.4169   21.3392 H   0  0  0  0  0  0  0  0  0  0  0  0
    5.2583    0.5911   22.3061 H   0  0  0  0  0  0  0  0  0  0  0  0
    3.3939    2.1126   22.6665 H   0  0  0  0  0  0  0  0  0  0  0  0
    2.3620    3.3002   20.7782 H   0  0  0  0  0  0  0  0  0  0  0  0
    3.1703    2.9584   18.5062 H   0  0  0  0  0  0  0  0  0  0  0  0
    4.7553    1.8125   16.9425 H   0  0  0  0  0  0  0  0  0  0  0  0
    7.6408   -0.7941   18.3271 H   0  0  0  0  0  0  0  0  0  0  0  0
  1  2  2  0  0  0  0
  2  3  2  0  0  0  0
  2  4  1  0  0  0  0
  2  7  1  0  0  0  0
  4  5  1  0  0  0  0
  4  6  1  0  0  0  0
  4 31  1  0  0  0  0
  5  6  1  0  0  0  0
  5 32  1  0  0  0  0
  5 33  1  0  0  0  0
  6 34  1  0  0  0  0
  6 35  1  0  0  0  0
  7  8  1  0  0  0  0
  7  9  1  0  0  0  0
  8 12  1  0  0  0  0
  8 36  1  0  0  0  0
  8 37  1  0  0  0  0
  9 10  1  0  0  0  0
  9 38  1  0  0  0  0
  9 39  1  0  0  0  0
 10 11  1  0  0  0  0
 10 18  1  0  0  0  0
 10 40  1  0  0  0  0
 11 12  2  0  0  0  0
 11 15  1  0  0  0  0
 12 13  1  0  0  0  0
 13 14  2  0  0  0  0
 13 41  1  0  0  0  0
 14 16  1  0  0  0  0
 14 42  1  0  0  0  0
 15 16  2  0  0  0  0
 15 43  1  0  0  0  0
 16 17  1  0  0  0  0
 18 19  2  0  0  0  0
 18 20  1  0  0  0  0
 20 21  1  0  0  0  0
 20 44  1  0  0  0  0
 21 22  2  0  0  0  0
 21 30  1  0  0  0  0
 22 23  1  0  0  0  0
 22 27  1  0  0  0  0
 23 24  2  0  0  0  0
 23 45  1  0  0  0  0
 24 25  1  0  0  0  0
 24 46  1  0  0  0  0
 25 26  2  0  0  0  0
 25 47  1  0  0  0  0
 26 27  1  0  0  0  0
 26 48  1  0  0  0  0
 27 28  2  0  0  0  0
 28 29  1  0  0  0  0
 28 49  1  0  0  0  0
 29 30  2  0  0  0  0
 30 50  1  0  0  0  0
M  END
> <compound_name>
MAT-POS-4223bc15-3

> <provenance>
{"isomeric_smiles": "c1ccc2c(c1)cncc2NC(=O)[C@@H]3C[N@](Cc4c3cc(cc4)Cl)S(=O)(=O)C5CC5", "inchi": "InChI=1S/C22H20ClN3O3S/c23-16-6-5-15-12-26(30(28,29)17-7-8-17)13-20(19(15)9-16)22(27)25-21-11-24-10-14-3-1-2-4-18(14)21/h1-6,9-11,17,20H,7-8,12-13H2,(H,25,27)/t20-/m1/s1", "inchi_key": "ZZQVZHXOXZIEHC-HXUWFJFHSA-N", "fixed_inchi": "InChI=1/C22H20ClN3O3S/c23-16-6-5-15-12-26(30(28,29)17-7-8-17)13-20(19(15)9-16)22(27)25-21-11-24-10-14-3-1-2-4-18(14)21/h1-6,9-11,17,20H,7-8,12-13H2,(H,25,27)/t20-/m1/s1/f/h25H", "fixed_inchikey": "ZZQVZHXOXZIEHC-KLFDUCQCNA-N"}

> <data_format>
sdf

$$$$
