LIG(A-305)
  -OEChem-06042511303D

 40 42  0     0  0  0  0  0  0999 V2000
    7.2468   -1.3696   21.5406 N   0  0  0  0  0  0  0  0  0  0  0  0
    4.7830    1.6404   18.3254 N   0  0  0  0  0  0  0  0  0  0  0  0
    7.7467   -2.4086   22.4326 C   0  0  0  0  0  0  0  0  0  0  0  0
    5.8311    0.8625   17.9075 C   0  0  0  0  0  0  0  0  0  0  0  0
    6.4151    1.1215   16.8525 O   0  0  0  0  0  0  0  0  0  0  0  0
   11.9467   -1.2674   22.3660 C   0  0  0  0  0  0  0  0  0  0  0  0
    9.2607   -2.3905   22.5067 C   0  0  0  0  0  0  0  0  0  0  0  0
   13.5505    0.3556   23.1202 C   0  0  0  0  0  0  0  0  0  0  0  0
    4.0097    0.4473   21.7303 C   0  0  0  0  0  0  0  0  0  0  0  0
   12.6334    0.8336   24.0402 C   0  0  0  0  0  0  0  0  0  0  0  0
   11.3685    0.2715   24.1280 C   0  0  0  0  0  0  0  0  0  0  0  0
    3.1048    2.3633   19.9132 C   0  0  0  0  0  0  0  0  0  0  0  0
    6.2420   -0.1695   18.8095 C   0  0  0  0  0  0  0  0  0  0  0  0
    4.6078    0.5384   20.4713 C   0  0  0  0  0  0  0  0  0  0  0  0
    5.6789   -0.3496   20.0334 C   0  0  0  0  0  0  0  0  0  0  0  0
    4.1599    1.5214   19.5653 C   0  0  0  0  0  0  0  0  0  0  0  0
    2.5087    2.2343   21.1562 C   0  0  0  0  0  0  0  0  0  0  0  0
    6.1078   -1.5116   20.8644 C   0  0  0  0  0  0  0  0  0  0  0  0
    9.7296   -1.2925   23.3348 N   0  0  0  0  0  0  0  0  0  0  0  0
    5.4259   -2.5336   20.9383 O   0  0  0  0  0  0  0  0  0  0  0  0
   13.2097   -0.6984   22.2932 C   0  0  0  0  0  0  0  0  0  0  0  0
   11.0126   -0.7755   23.2799 C   0  0  0  0  0  0  0  0  0  0  0  0
    2.9606    1.2913   22.0602 C   0  0  0  0  0  0  0  0  0  0  0  0
    7.7736   -0.5264   21.4332 H   0  0  0  0  0  0  0  0  0  0  0  0
    4.4405    2.3391   17.6887 H   0  0  0  0  0  0  0  0  0  0  0  0
    7.3368   -2.2435   23.4399 H   0  0  0  0  0  0  0  0  0  0  0  0
    7.4181   -3.3897   22.0592 H   0  0  0  0  0  0  0  0  0  0  0  0
   11.6862   -2.0900   21.7166 H   0  0  0  0  0  0  0  0  0  0  0  0
    9.6109   -3.3403   22.9370 H   0  0  0  0  0  0  0  0  0  0  0  0
    9.6690   -2.2752   21.4919 H   0  0  0  0  0  0  0  0  0  0  0  0
   14.5300    0.8050   23.0487 H   0  0  0  0  0  0  0  0  0  0  0  0
    4.3641   -0.2798   22.4459 H   0  0  0  0  0  0  0  0  0  0  0  0
   12.9045    1.6495   24.6938 H   0  0  0  0  0  0  0  0  0  0  0  0
   10.6602    0.6449   24.8528 H   0  0  0  0  0  0  0  0  0  0  0  0
    2.7545    3.1116   19.2176 H   0  0  0  0  0  0  0  0  0  0  0  0
    7.0355   -0.8355   18.5040 H   0  0  0  0  0  0  0  0  0  0  0  0
    1.6823    2.8768   21.4221 H   0  0  0  0  0  0  0  0  0  0  0  0
    9.3191   -1.2663   24.2463 H   0  0  0  0  0  0  0  0  0  0  0  0
   13.9309   -1.0810   21.5861 H   0  0  0  0  0  0  0  0  0  0  0  0
    2.4930    1.2114   23.0304 H   0  0  0  0  0  0  0  0  0  0  0  0
  1  3  1  0  0  0  0
  1 18  1  0  0  0  0
  1 24  1  0  0  0  0
  2  4  1  0  0  0  0
  2 16  1  0  0  0  0
  2 25  1  0  0  0  0
  3  7  1  0  0  0  0
  3 26  1  0  0  0  0
  3 27  1  0  0  0  0
  4  5  2  0  0  0  0
  4 13  1  0  0  0  0
  6 21  2  0  0  0  0
  6 22  1  0  0  0  0
  6 28  1  0  0  0  0
  7 19  1  0  0  0  0
  7 29  1  0  0  0  0
  7 30  1  0  0  0  0
  8 10  2  0  0  0  0
  8 21  1  0  0  0  0
  8 31  1  0  0  0  0
  9 14  2  0  0  0  0
  9 23  1  0  0  0  0
  9 32  1  0  0  0  0
 10 11  1  0  0  0  0
 10 33  1  0  0  0  0
 11 22  2  0  0  0  0
 11 34  1  0  0  0  0
 12 16  2  0  0  0  0
 12 17  1  0  0  0  0
 12 35  1  0  0  0  0
 13 15  2  0  0  0  0
 13 36  1  0  0  0  0
 14 15  1  0  0  0  0
 14 16  1  0  0  0  0
 15 18  1  0  0  0  0
 17 23  2  0  0  0  0
 17 37  1  0  0  0  0
 18 20  2  0  0  0  0
 19 22  1  0  0  0  0
 19 38  1  0  0  0  0
 21 39  1  0  0  0  0
 23 40  1  0  0  0  0
M  END
> <compound_name>
BEN-DND-7e92b6ca-4

> <provenance>
{"isomeric_smiles": "c1ccc(cc1)NCCNC(=O)c2cc(=O)[nH]c3c2cccc3", "inchi": "InChI=1S/C18H17N3O2/c22-17-12-15(14-8-4-5-9-16(14)21-17)18(23)20-11-10-19-13-6-2-1-3-7-13/h1-9,12,19H,10-11H2,(H,20,23)(H,21,22)", "inchi_key": "FTMBCXQGAOJUAX-UHFFFAOYSA-N", "fixed_inchi": "InChI=1/C18H17N3O2/c22-17-12-15(14-8-4-5-9-16(14)21-17)18(23)20-11-10-19-13-6-2-1-3-7-13/h1-9,12,19H,10-11H2,(H,20,23)(H,21,22)/f/h20-21H", "fixed_inchikey": "FTMBCXQGAOJUAX-BDGWVKIONA-N"}

> <data_format>
sdf

$$$$
