LIG(A-305)
  -OEChem-06042511373D

 33 35  0     0  0  0  0  0  0999 V2000
    9.0353    0.9401   21.0090 O   0  0  0  0  0  0  0  0  0  0  0  0
    8.5254   -0.1199   21.3581 C   0  0  0  0  0  0  0  0  0  0  0  0
    9.0614   -0.9188   22.5311 C   0  0  0  0  0  0  0  0  0  0  0  0
   10.5334   -0.6667   22.7601 C   0  0  0  0  0  0  0  0  0  0  0  0
   10.9633    0.2354   23.7251 C   0  0  0  0  0  0  0  0  0  0  0  0
   12.3073    0.5585   23.8461 C   0  0  0  0  0  0  0  0  0  0  0  0
   13.2454   -0.0344   23.0151 C   0  0  0  0  0  0  0  0  0  0  0  0
   11.4785   -1.2826   21.9491 C   0  0  0  0  0  0  0  0  0  0  0  0
   12.8155   -0.9675   22.0931 C   0  0  0  0  0  0  0  0  0  0  0  0
   13.9915   -1.8405   21.1512 Cl  0  0  0  0  0  0  0  0  0  0  0  0
    7.4294   -0.6411   20.7671 N   0  0  0  0  0  0  0  0  0  0  0  0
    6.6624   -0.0722   19.7370 C   0  0  0  0  0  0  0  0  0  0  0  0
    5.4743    0.6447   20.0810 C   0  0  0  0  0  0  0  0  0  0  0  0
    4.9463    0.7248   21.3950 C   0  0  0  0  0  0  0  0  0  0  0  0
    3.7882    1.4157   21.6079 C   0  0  0  0  0  0  0  0  0  0  0  0
    3.1002    2.0506   20.6449 N   0  0  0  0  0  0  0  0  0  0  0  0
    3.5842    2.0085   19.4089 C   0  0  0  0  0  0  0  0  0  0  0  0
    4.7743    1.3186   19.0460 C   0  0  0  0  0  0  0  0  0  0  0  0
    5.3133    1.2446   17.7370 C   0  0  0  0  0  0  0  0  0  0  0  0
    6.4204    0.5727   17.4180 N   0  0  0  0  0  0  0  0  0  0  0  0
    7.0554   -0.0752   18.3990 C   0  0  0  0  0  0  0  0  0  0  0  0
    8.5069   -0.6347   23.4377 H   0  0  0  0  0  0  0  0  0  0  0  0
    8.9113   -1.9898   22.3300 H   0  0  0  0  0  0  0  0  0  0  0  0
   10.2431    0.6905   24.3888 H   0  0  0  0  0  0  0  0  0  0  0  0
   12.6237    1.2745   24.5901 H   0  0  0  0  0  0  0  0  0  0  0  0
   14.2904    0.2282   23.0876 H   0  0  0  0  0  0  0  0  0  0  0  0
   11.1687   -2.0053   21.2088 H   0  0  0  0  0  0  0  0  0  0  0  0
    7.1291   -1.5346   21.1008 H   0  0  0  0  0  0  0  0  0  0  0  0
    5.4547    0.2445   22.2179 H   0  0  0  0  0  0  0  0  0  0  0  0
    3.4005    1.4542   22.6152 H   0  0  0  0  0  0  0  0  0  0  0  0
    3.0422    2.5291   18.6332 H   0  0  0  0  0  0  0  0  0  0  0  0
    4.7938    1.7661   16.9467 H   0  0  0  0  0  0  0  0  0  0  0  0
    7.9366   -0.6420   18.1369 H   0  0  0  0  0  0  0  0  0  0  0  0
  1  2  2  0  0  0  0
  2  3  1  0  0  0  0
  2 11  1  0  0  0  0
  3  4  1  0  0  0  0
  3 22  1  0  0  0  0
  3 23  1  0  0  0  0
  4  5  2  0  0  0  0
  4  8  1  0  0  0  0
  5  6  1  0  0  0  0
  5 24  1  0  0  0  0
  6  7  2  0  0  0  0
  6 25  1  0  0  0  0
  7  9  1  0  0  0  0
  7 26  1  0  0  0  0
  8  9  2  0  0  0  0
  8 27  1  0  0  0  0
  9 10  1  0  0  0  0
 11 12  1  0  0  0  0
 11 28  1  0  0  0  0
 12 13  2  0  0  0  0
 12 21  1  0  0  0  0
 13 14  1  0  0  0  0
 13 18  1  0  0  0  0
 14 15  2  0  0  0  0
 14 29  1  0  0  0  0
 15 16  1  0  0  0  0
 15 30  1  0  0  0  0
 16 17  2  0  0  0  0
 17 18  1  0  0  0  0
 17 31  1  0  0  0  0
 18 19  2  0  0  0  0
 19 20  1  0  0  0  0
 19 32  1  0  0  0  0
 20 21  2  0  0  0  0
 21 33  1  0  0  0  0
M  END
> <compound_name>
MAT-POS-bb423b95-1

> <provenance>
{"isomeric_smiles": "c1cc(cc(c1)Cl)CC(=O)Nc2cncc3c2ccnc3", "inchi": "InChI=1S/C16H12ClN3O/c17-13-3-1-2-11(6-13)7-16(21)20-15-10-19-9-12-8-18-5-4-14(12)15/h1-6,8-10H,7H2,(H,20,21)", "inchi_key": "ITQMQTJYJVFFAW-UHFFFAOYSA-N", "fixed_inchi": "InChI=1/C16H12ClN3O/c17-13-3-1-2-11(6-13)7-16(21)20-15-10-19-9-12-8-18-5-4-14(12)15/h1-6,8-10H,7H2,(H,20,21)/f/h20H", "fixed_inchikey": "ITQMQTJYJVFFAW-UYBDAZJANA-N"}

> <data_format>
sdf

$$$$
