LIG(A-306)
  -OEChem-06042511393D

 35 37  0     0  0  0  0  0  0999 V2000
   14.5510   -1.7743   20.5633 N   0  0  0  0  0  0  0  0  0  0  0  0
   13.7816   -1.3521   21.2953 C   0  0  0  0  0  0  0  0  0  0  0  0
   12.8325   -0.7856   22.2224 C   0  0  0  0  0  0  0  0  0  0  0  0
   13.2668    0.0772   23.2247 C   0  0  0  0  0  0  0  0  0  0  0  0
   12.3376    0.7576   23.9927 C   0  0  0  0  0  0  0  0  0  0  0  0
   10.9811    0.5681   23.7733 C   0  0  0  0  0  0  0  0  0  0  0  0
   11.4681   -1.0000   22.0290 C   0  0  0  0  0  0  0  0  0  0  0  0
   10.5328   -0.3137   22.7960 C   0  0  0  0  0  0  0  0  0  0  0  0
    9.0563   -0.5281   22.5619 C   0  0  0  0  0  0  0  0  0  0  0  0
    8.5126    0.2580   21.3860 C   0  0  0  0  0  0  0  0  0  0  0  0
    9.0405    1.2973   20.9940 O   0  0  0  0  0  0  0  0  0  0  0  0
    7.3974   -0.2709   20.8416 N   0  0  0  0  0  0  0  0  0  0  0  0
    6.6078    0.2484   19.7994 C   0  0  0  0  0  0  0  0  0  0  0  0
    5.5049    1.0924   20.1355 C   0  0  0  0  0  0  0  0  0  0  0  0
    5.1574    1.4480   21.4658 C   0  0  0  0  0  0  0  0  0  0  0  0
    4.0793    2.2489   21.7199 C   0  0  0  0  0  0  0  0  0  0  0  0
    3.2968    2.7352   20.6788 C   0  0  0  0  0  0  0  0  0  0  0  0
    3.5953    2.4267   19.3806 C   0  0  0  0  0  0  0  0  0  0  0  0
    4.7082    1.6017   19.0734 C   0  0  0  0  0  0  0  0  0  0  0  0
    5.0707    1.2492   17.7551 C   0  0  0  0  0  0  0  0  0  0  0  0
    6.1027    0.4822   17.4441 N   0  0  0  0  0  0  0  0  0  0  0  0
    6.8402   -0.0021   18.4473 C   0  0  0  0  0  0  0  0  0  0  0  0
   14.3231    0.2151   23.4023 H   0  0  0  0  0  0  0  0  0  0  0  0
   12.6692    1.4370   24.7639 H   0  0  0  0  0  0  0  0  0  0  0  0
   10.2637    1.1126   24.3693 H   0  0  0  0  0  0  0  0  0  0  0  0
   11.1359   -1.7030   21.2795 H   0  0  0  0  0  0  0  0  0  0  0  0
    8.8848   -1.5984   22.3749 H   0  0  0  0  0  0  0  0  0  0  0  0
    8.5117   -0.2222   23.4673 H   0  0  0  0  0  0  0  0  0  0  0  0
    7.0936   -1.1421   21.2274 H   0  0  0  0  0  0  0  0  0  0  0  0
    5.7534    1.0805   22.2881 H   0  0  0  0  0  0  0  0  0  0  0  0
    3.8330    2.5064   22.7394 H   0  0  0  0  0  0  0  0  0  0  0  0
    2.4452    3.3625   20.8974 H   0  0  0  0  0  0  0  0  0  0  0  0
    2.9790    2.8139   18.5826 H   0  0  0  0  0  0  0  0  0  0  0  0
    4.4650    1.6311   16.9467 H   0  0  0  0  0  0  0  0  0  0  0  0
    7.6780   -0.6342   18.1924 H   0  0  0  0  0  0  0  0  0  0  0  0
  1  2  3  0  0  0  0
  2  3  1  0  0  0  0
  3  4  2  0  0  0  0
  3  7  1  0  0  0  0
  4  5  1  0  0  0  0
  4 23  1  0  0  0  0
  5  6  2  0  0  0  0
  5 24  1  0  0  0  0
  6  8  1  0  0  0  0
  6 25  1  0  0  0  0
  7  8  2  0  0  0  0
  7 26  1  0  0  0  0
  8  9  1  0  0  0  0
  9 10  1  0  0  0  0
  9 27  1  0  0  0  0
  9 28  1  0  0  0  0
 10 11  2  0  0  0  0
 10 12  1  0  0  0  0
 12 13  1  0  0  0  0
 12 29  1  0  0  0  0
 13 14  2  0  0  0  0
 13 22  1  0  0  0  0
 14 15  1  0  0  0  0
 14 19  1  0  0  0  0
 15 16  2  0  0  0  0
 15 30  1  0  0  0  0
 16 17  1  0  0  0  0
 16 31  1  0  0  0  0
 17 18  2  0  0  0  0
 17 32  1  0  0  0  0
 18 19  1  0  0  0  0
 18 33  1  0  0  0  0
 19 20  2  0  0  0  0
 20 21  1  0  0  0  0
 20 34  1  0  0  0  0
 21 22  2  0  0  0  0
 22 35  1  0  0  0  0
M  END
> <compound_name>
RAL-THA-2d450e86-12

> <provenance>
{"isomeric_smiles": "c1ccc2c(c1)cncc2NC(=O)Cc3cccc(c3)C#N", "inchi": "InChI=1S/C18H13N3O/c19-10-14-5-3-4-13(8-14)9-18(22)21-17-12-20-11-15-6-1-2-7-16(15)17/h1-8,11-12H,9H2,(H,21,22)", "inchi_key": "BVFDAXUESDGGQS-UHFFFAOYSA-N", "fixed_inchi": "InChI=1/C18H13N3O/c19-10-14-5-3-4-13(8-14)9-18(22)21-17-12-20-11-15-6-1-2-7-16(15)17/h1-8,11-12H,9H2,(H,21,22)/f/h21H", "fixed_inchikey": "BVFDAXUESDGGQS-PKSOQXRJNA-N"}

> <data_format>
sdf

$$$$
