LIG(B-306)
  -OEChem-06042511423D

 40 44  0     0  0  0  0  0  0999 V2000
  -14.2158   -2.5061  -20.9820 Cl  0  0  0  0  0  0  0  0  0  0  0  0
  -13.0937   -2.4477  -22.3158 C   0  0  0  0  0  0  0  0  0  0  0  0
  -11.8420   -1.9073  -22.1058 C   0  0  0  0  0  0  0  0  0  0  0  0
  -13.4862   -2.9213  -23.5550 C   0  0  0  0  0  0  0  0  0  0  0  0
  -12.6051   -2.8425  -24.6202 C   0  0  0  0  0  0  0  0  0  0  0  0
  -11.3523   -2.2792  -24.4167 C   0  0  0  0  0  0  0  0  0  0  0  0
  -10.5049   -2.2070  -25.4971 O   0  0  0  0  0  0  0  0  0  0  0  0
   -9.2348   -1.6029  -25.1391 C   0  0  0  0  0  0  0  0  0  0  0  0
   -9.4955   -0.3124  -24.3441 C   0  0  0  0  0  0  0  0  0  0  0  0
   -8.7263   -2.2658  -23.8481 C   0  0  0  0  0  0  0  0  0  0  0  0
  -10.9587   -1.8095  -23.1744 C   0  0  0  0  0  0  0  0  0  0  0  0
   -9.5557   -1.2024  -23.0645 C   0  0  0  0  0  0  0  0  0  0  0  0
   -9.1550   -0.6584  -21.6806 C   0  0  0  0  0  0  0  0  0  0  0  0
   -9.7134    0.3189  -21.2089 O   0  0  0  0  0  0  0  0  0  0  0  0
   -8.0152   -1.1570  -21.1636 N   0  0  0  0  0  0  0  0  0  0  0  0
   -7.2959   -0.6427  -20.0615 C   0  0  0  0  0  0  0  0  0  0  0  0
   -7.6372   -0.8647  -18.7296 C   0  0  0  0  0  0  0  0  0  0  0  0
   -6.9790   -0.3686  -17.6716 N   0  0  0  0  0  0  0  0  0  0  0  0
   -5.9139    0.3807  -17.9086 C   0  0  0  0  0  0  0  0  0  0  0  0
   -5.4408    0.7065  -19.2033 C   0  0  0  0  0  0  0  0  0  0  0  0
   -4.3180    1.5395  -19.4244 C   0  0  0  0  0  0  0  0  0  0  0  0
   -3.9539    1.8095  -20.7010 C   0  0  0  0  0  0  0  0  0  0  0  0
   -2.8689    2.6053  -20.9057 F   0  0  0  0  0  0  0  0  0  0  0  0
   -6.1545    0.1802  -20.3182 C   0  0  0  0  0  0  0  0  0  0  0  0
   -5.7006    0.5132  -21.6203 C   0  0  0  0  0  0  0  0  0  0  0  0
   -4.6150    1.3185  -21.8021 C   0  0  0  0  0  0  0  0  0  0  0  0
  -11.5521   -1.5646  -21.1235 H   0  0  0  0  0  0  0  0  0  0  0  0
  -14.4691   -3.3479  -23.6901 H   0  0  0  0  0  0  0  0  0  0  0  0
  -12.8879   -3.2134  -25.5944 H   0  0  0  0  0  0  0  0  0  0  0  0
   -8.4879   -1.5125  -25.9416 H   0  0  0  0  0  0  0  0  0  0  0  0
   -8.6688    0.4131  -24.3612 H   0  0  0  0  0  0  0  0  0  0  0  0
  -10.4371    0.1989  -24.5933 H   0  0  0  0  0  0  0  0  0  0  0  0
   -9.0574   -3.3048  -23.7037 H   0  0  0  0  0  0  0  0  0  0  0  0
   -7.6385   -2.2033  -23.6968 H   0  0  0  0  0  0  0  0  0  0  0  0
   -7.6406   -1.9729  -21.6041 H   0  0  0  0  0  0  0  0  0  0  0  0
   -8.4993   -1.4848  -18.5335 H   0  0  0  0  0  0  0  0  0  0  0  0
   -5.3705    0.7687  -17.0598 H   0  0  0  0  0  0  0  0  0  0  0  0
   -3.7637    1.9507  -18.5937 H   0  0  0  0  0  0  0  0  0  0  0  0
   -6.2229    0.1228  -22.4811 H   0  0  0  0  0  0  0  0  0  0  0  0
   -4.2790    1.5672  -22.7979 H   0  0  0  0  0  0  0  0  0  0  0  0
  1  2  1  0  0  0  0
  2  3  2  0  0  0  0
  2  4  1  0  0  0  0
  3 11  1  0  0  0  0
  3 27  1  0  0  0  0
  4  5  2  0  0  0  0
  4 28  1  0  0  0  0
  5  6  1  0  0  0  0
  5 29  1  0  0  0  0
  6  7  1  0  0  0  0
  6 11  2  0  0  0  0
  7  8  1  0  0  0  0
  8  9  1  0  0  0  0
  8 10  1  0  0  0  0
  8 30  1  0  0  0  0
  9 12  1  0  0  0  0
  9 31  1  0  0  0  0
  9 32  1  0  0  0  0
 10 12  1  0  0  0  0
 10 33  1  0  0  0  0
 10 34  1  0  0  0  0
 11 12  1  0  0  0  0
 12 13  1  0  0  0  0
 13 14  2  0  0  0  0
 13 15  1  0  0  0  0
 15 16  1  0  0  0  0
 15 35  1  0  0  0  0
 16 17  2  0  0  0  0
 16 24  1  0  0  0  0
 17 18  1  0  0  0  0
 17 36  1  0  0  0  0
 18 19  2  0  0  0  0
 19 20  1  0  0  0  0
 19 37  1  0  0  0  0
 20 21  2  0  0  0  0
 20 24  1  0  0  0  0
 21 22  1  0  0  0  0
 21 38  1  0  0  0  0
 22 23  1  0  0  0  0
 22 26  2  0  0  0  0
 24 25  2  0  0  0  0
 25 26  1  0  0  0  0
 25 39  1  0  0  0  0
 26 40  1  0  0  0  0
M  END
> <compound_name>
EDJ-MED-c3ea9889-6

> <provenance>
{"isomeric_smiles": "c1cc2c(cc1F)cncc2NC(=O)C34CC(C3)Oc5c4cc(cc5)Cl", "inchi": "InChI=1S/C20H14ClFN2O2/c21-12-1-4-18-16(6-12)20(7-14(8-20)26-18)19(25)24-17-10-23-9-11-5-13(22)2-3-15(11)17/h1-6,9-10,14H,7-8H2,(H,24,25)/t14-,20-", "inchi_key": "HANIMTZEYQYKPD-OYOVHJISSA-N", "fixed_inchi": "InChI=1/C20H14ClFN2O2/c21-12-1-4-18-16(6-12)20(7-14(8-20)26-18)19(25)24-17-10-23-9-11-5-13(22)2-3-15(11)17/h1-6,9-10,14H,7-8H2,(H,24,25)/t14-,20-/f/h24H", "fixed_inchikey": "HANIMTZEYQYKPD-XPKKZVEKNA-N"}

> <data_format>
sdf

$$$$
