LIG(A-305)
  -OEChem-06042511363D

 26 27  0     0  0  0  0  0  0999 V2000
    9.3555    0.8934   20.8555 O   0  0  0  0  0  0  0  0  0  0  0  0
    8.6515    0.0245   21.3606 C   0  0  0  0  0  0  0  0  0  0  0  0
    9.1215   -0.8116   22.5324 C   0  0  0  0  0  0  0  0  0  0  0  0
   10.5936   -0.5688   22.7603 C   0  0  0  0  0  0  0  0  0  0  0  0
   11.0298    0.4041   23.6503 C   0  0  0  0  0  0  0  0  0  0  0  0
   12.3728    0.7430   23.7301 C   0  0  0  0  0  0  0  0  0  0  0  0
   13.3027    0.0980   22.9300 C   0  0  0  0  0  0  0  0  0  0  0  0
   11.5324   -1.2368   21.9831 C   0  0  0  0  0  0  0  0  0  0  0  0
   12.8655   -0.8989   22.0810 C   0  0  0  0  0  0  0  0  0  0  0  0
   14.0293   -1.8200   21.1758 Cl  0  0  0  0  0  0  0  0  0  0  0  0
    7.3464   -0.1524   21.0047 N   0  0  0  0  0  0  0  0  0  0  0  0
    6.8293    0.1547   19.7338 C   0  0  0  0  0  0  0  0  0  0  0  0
    5.5292    0.2088   19.3320 C   0  0  0  0  0  0  0  0  0  0  0  0
    5.5221    0.4569   18.0190 N   0  0  0  0  0  0  0  0  0  0  0  0
    6.7730    0.5278   17.5198 N   0  0  0  0  0  0  0  0  0  0  0  0
    7.5721    0.3367   18.5627 C   0  0  0  0  0  0  0  0  0  0  0  0
    8.5587   -0.5293   23.4344 H   0  0  0  0  0  0  0  0  0  0  0  0
    8.9543   -1.8767   22.3143 H   0  0  0  0  0  0  0  0  0  0  0  0
   10.3149    0.9030   24.2879 H   0  0  0  0  0  0  0  0  0  0  0  0
   12.6945    1.5114   24.4175 H   0  0  0  0  0  0  0  0  0  0  0  0
   14.3472    0.3695   22.9698 H   0  0  0  0  0  0  0  0  0  0  0  0
   11.2191   -2.0172   21.3055 H   0  0  0  0  0  0  0  0  0  0  0  0
    6.7192   -0.5232   21.6897 H   0  0  0  0  0  0  0  0  0  0  0  0
    4.6612    0.0755   19.9606 H   0  0  0  0  0  0  0  0  0  0  0  0
    4.6913    0.5752   17.4710 H   0  0  0  0  0  0  0  0  0  0  0  0
    8.6509    0.3235   18.5135 H   0  0  0  0  0  0  0  0  0  0  0  0
  1  2  2  0  0  0  0
  2  3  1  0  0  0  0
  2 11  1  0  0  0  0
  3  4  1  0  0  0  0
  3 17  1  0  0  0  0
  3 18  1  0  0  0  0
  4  5  2  0  0  0  0
  4  8  1  0  0  0  0
  5  6  1  0  0  0  0
  5 19  1  0  0  0  0
  6  7  2  0  0  0  0
  6 20  1  0  0  0  0
  7  9  1  0  0  0  0
  7 21  1  0  0  0  0
  8  9  2  0  0  0  0
  8 22  1  0  0  0  0
  9 10  1  0  0  0  0
 11 12  1  0  0  0  0
 11 23  1  0  0  0  0
 12 13  2  0  0  0  0
 12 16  1  0  0  0  0
 13 14  1  0  0  0  0
 13 24  1  0  0  0  0
 14 15  1  0  0  0  0
 14 25  1  0  0  0  0
 15 16  2  0  0  0  0
 16 26  1  0  0  0  0
M  END
> <compound_name>
MIC-UNK-66895286-1

> <provenance>
{"isomeric_smiles": "c1cc(cc(c1)Cl)CC(=O)Nc2c[nH]nc2", "inchi": "InChI=1S/C11H10ClN3O/c12-9-3-1-2-8(4-9)5-11(16)15-10-6-13-14-7-10/h1-4,6-7H,5H2,(H,13,14)(H,15,16)", "inchi_key": "SDKQWVALTYIIDW-UHFFFAOYSA-N", "fixed_inchi": "InChI=1/C11H10ClN3O/c12-9-3-1-2-8(4-9)5-11(16)15-10-6-13-14-7-10/h1-4,6-7H,5H2,(H,13,14)(H,15,16)/f/h13,15H", "fixed_inchikey": "SDKQWVALTYIIDW-YENFCIRVNA-N"}

> <data_format>
sdf

$$$$
