LIG(A-306)
  -OEChem-06042511413D

 55 59  0     1  0  0  0  0  0999 V2000
    9.3236    1.5174   21.3690 O   0  0  0  0  0  0  0  0  0  0  0  0
    8.9602    0.4193   21.7617 C   0  0  0  0  0  0  0  0  0  0  0  0
    7.9374   -0.3158   21.2353 N   0  0  0  0  0  0  0  0  0  0  0  0
    7.0949    0.0806   20.1416 C   0  0  0  0  0  0  0  0  0  0  0  0
    5.9107    0.8523   20.3488 C   0  0  0  0  0  0  0  0  0  0  0  0
    5.4210    1.2270   21.6259 C   0  0  0  0  0  0  0  0  0  0  0  0
    4.3138    2.0139   21.7522 C   0  0  0  0  0  0  0  0  0  0  0  0
    3.6375    2.4740   20.6287 C   0  0  0  0  0  0  0  0  0  0  0  0
    4.0553    2.1284   19.3758 C   0  0  0  0  0  0  0  0  0  0  0  0
    5.1954    1.3057   19.1983 C   0  0  0  0  0  0  0  0  0  0  0  0
    5.6861    0.9289   17.9223 C   0  0  0  0  0  0  0  0  0  0  0  0
    6.7703    0.1904   17.7332 N   0  0  0  0  0  0  0  0  0  0  0  0
    7.4398   -0.2136   18.8240 C   0  0  0  0  0  0  0  0  0  0  0  0
    7.7637   -1.6108   21.9129 C   0  0  0  0  0  0  0  0  0  0  0  0
    9.0865   -1.8085   22.6485 C   0  0  0  0  0  0  0  0  0  0  0  0
    9.5609   -0.3650   22.9405 C   0  0  1  0  0  0  0  0  0  0  0  0
   11.0932   -0.2309   23.0137 C   0  0  0  0  0  0  0  0  0  0  0  0
   11.9092   -0.9986   22.1826 C   0  0  0  0  0  0  0  0  0  0  0  0
   13.2519   -0.6871   22.0817 C   0  0  0  0  0  0  0  0  0  0  0  0
   14.2265   -1.5335   20.9151 Cl  0  0  0  0  0  0  0  0  0  0  0  0
   13.8204    0.3239   22.8256 C   0  0  0  0  0  0  0  0  0  0  0  0
   13.0283    1.0323   23.7074 C   0  0  0  0  0  0  0  0  0  0  0  0
   11.6637    0.7708   23.8155 C   0  0  0  0  0  0  0  0  0  0  0  0
   10.8409    1.5587   24.8078 C   0  0  0  0  0  0  0  0  0  0  0  0
    8.9296    0.1979   24.2406 C   0  0  0  0  0  0  0  0  0  0  0  0
    9.4098    1.5597   24.4713 N   0  3  1  0  0  0  0  0  0  0  0  0
    8.6290    2.4371   25.3379 C   0  0  0  0  0  0  0  0  0  0  0  0
    7.7189    3.3840   24.5760 C   0  0  0  0  0  0  0  0  0  0  0  0
    6.6328    3.7161   25.0420 O   0  0  0  0  0  0  0  0  0  0  0  0
    8.1404    3.7920   23.3819 N   0  0  0  0  0  0  0  0  0  0  0  0
    7.2918    4.5385   22.4709 C   0  0  0  0  0  0  0  0  0  0  0  0
    5.9328    0.8839   22.5128 H   0  0  0  0  0  0  0  0  0  0  0  0
    3.9589    2.2822   22.7363 H   0  0  0  0  0  0  0  0  0  0  0  0
    2.7735    3.1109   20.7479 H   0  0  0  0  0  0  0  0  0  0  0  0
    3.5125    2.4848   18.5129 H   0  0  0  0  0  0  0  0  0  0  0  0
    5.1430    1.2643   17.0511 H   0  0  0  0  0  0  0  0  0  0  0  0
    8.3209   -0.8182   18.6671 H   0  0  0  0  0  0  0  0  0  0  0  0
    6.9221   -1.5747   22.6202 H   0  0  0  0  0  0  0  0  0  0  0  0
    7.5952   -2.4167   21.1834 H   0  0  0  0  0  0  0  0  0  0  0  0
    8.9361   -2.3690   23.5829 H   0  0  0  0  0  0  0  0  0  0  0  0
    9.8123   -2.3397   22.0151 H   0  0  0  0  0  0  0  0  0  0  0  0
   11.4967   -1.8262   21.6248 H   0  0  0  0  0  0  0  0  0  0  0  0
   14.8693    0.5587   22.7206 H   0  0  0  0  0  0  0  0  0  0  0  0
   13.4731    1.8005   24.3225 H   0  0  0  0  0  0  0  0  0  0  0  0
   10.9691    1.1139   25.8056 H   0  0  0  0  0  0  0  0  0  0  0  0
   11.2018    2.5978   24.8204 H   0  0  0  0  0  0  0  0  0  0  0  0
    7.8342    0.2083   24.1405 H   0  0  0  0  0  0  0  0  0  0  0  0
    9.2140   -0.4392   25.0910 H   0  0  0  0  0  0  0  0  0  0  0  0
    9.3669    1.9947   23.5718 H   0  0  0  0  0  0  0  0  0  0  0  0
    8.0086    1.8130   25.9980 H   0  0  0  0  0  0  0  0  0  0  0  0
    9.3241    3.0352   25.9456 H   0  0  0  0  0  0  0  0  0  0  0  0
    9.0760    3.5766   23.1017 H   0  0  0  0  0  0  0  0  0  0  0  0
    7.8508    4.7657   21.5511 H   0  0  0  0  0  0  0  0  0  0  0  0
    6.4044    3.9383   22.2217 H   0  0  0  0  0  0  0  0  0  0  0  0
    6.9768    5.4775   22.9496 H   0  0  0  0  0  0  0  0  0  0  0  0
  1  2  2  0  0  0  0
  2  3  1  0  0  0  0
  2 16  1  0  0  0  0
  3  4  1  0  0  0  0
  3 14  1  0  0  0  0
  4  5  2  0  0  0  0
  4 13  1  0  0  0  0
  5  6  1  0  0  0  0
  5 10  1  0  0  0  0
  6  7  2  0  0  0  0
  6 32  1  0  0  0  0
  7  8  1  0  0  0  0
  7 33  1  0  0  0  0
  8  9  2  0  0  0  0
  8 34  1  0  0  0  0
  9 10  1  0  0  0  0
  9 35  1  0  0  0  0
 10 11  2  0  0  0  0
 11 12  1  0  0  0  0
 11 36  1  0  0  0  0
 12 13  2  0  0  0  0
 13 37  1  0  0  0  0
 14 15  1  0  0  0  0
 14 38  1  0  0  0  0
 14 39  1  0  0  0  0
 15 16  1  0  0  0  0
 15 40  1  0  0  0  0
 15 41  1  0  0  0  0
 16 17  1  0  0  0  0
 16 25  1  0  0  0  0
 17 18  2  0  0  0  0
 17 23  1  0  0  0  0
 18 19  1  0  0  0  0
 18 42  1  0  0  0  0
 19 20  1  0  0  0  0
 19 21  2  0  0  0  0
 21 22  1  0  0  0  0
 21 43  1  0  0  0  0
 22 23  2  0  0  0  0
 22 44  1  0  0  0  0
 23 24  1  0  0  0  0
 24 26  1  0  0  0  0
 24 45  1  0  0  0  0
 24 46  1  0  0  0  0
 25 26  1  0  0  0  0
 25 47  1  0  0  0  0
 25 48  1  0  0  0  0
 26 27  1  0  0  0  0
 26 49  1  0  0  0  0
 27 28  1  0  0  0  0
 27 50  1  0  0  0  0
 27 51  1  0  0  0  0
 28 29  2  0  0  0  0
 28 30  1  0  0  0  0
 30 31  1  0  0  0  0
 30 52  1  0  0  0  0
 31 53  1  0  0  0  0
 31 54  1  0  0  0  0
 31 55  1  0  0  0  0
M  CHG  1  26   1
M  END
> <compound_name>
EDJ-MED-8bb691af-4

> <provenance>
{"isomeric_smiles": "CNC(=O)C[N@H+]1Cc2ccc(cc2[C@]3(C1)CCN(C3=O)c4cncc5c4cccc5)Cl", "inchi": "InChI=1S/C24H23ClN4O2/c1-26-22(30)14-28-13-17-6-7-18(25)10-20(17)24(15-28)8-9-29(23(24)31)21-12-27-11-16-4-2-3-5-19(16)21/h2-7,10-12H,8-9,13-15H2,1H3,(H,26,30)/p+1/t24-/m1/s1", "inchi_key": "KZHDXVVSRJEQJU-XMMPIXPASA-O", "fixed_inchi": "InChI=1/C24H23ClN4O2/c1-26-22(30)14-28-13-17-6-7-18(25)10-20(17)24(15-28)8-9-29(23(24)31)21-12-27-11-16-4-2-3-5-19(16)21/h2-7,10-12H,8-9,13-15H2,1H3,(H,26,30)/p+1/t24-/m1/s1/fC24H24ClN4O2/h26,28H/q+1", "fixed_inchikey": "KZHDXVVSRJEQJU-CBKJWKAPNA-O"}

> <data_format>
sdf

$$$$
