LIG(A-305)
  -OEChem-06042511333D

 44 46  0     1  0  0  0  0  0999 V2000
   13.7399   -1.3072   20.8065 F   0  0  0  0  0  0  0  0  0  0  0  0
   12.9973   -0.8731   21.8567 C   0  0  0  0  0  0  0  0  0  0  0  0
   13.4648    0.1868   22.5916 C   0  0  0  0  0  0  0  0  0  0  0  0
   12.7252    0.6069   23.6829 C   0  0  0  0  0  0  0  0  0  0  0  0
   11.8242   -1.5227   22.1380 C   0  0  0  0  0  0  0  0  0  0  0  0
   11.0846   -1.1006   23.2282 C   0  0  0  0  0  0  0  0  0  0  0  0
   11.5441   -0.0468   24.0001 C   0  0  0  0  0  0  0  0  0  0  0  0
   10.5856    0.5065   25.3664 S   0  0  0  0  0  0  0  0  0  0  0  0
   11.3811    1.4222   26.1263 O   0  0  0  0  0  0  0  0  0  0  0  0
   10.0195   -0.6434   26.0085 O   0  0  0  0  0  0  0  0  0  0  0  0
    9.3607    1.3458   24.6978 N   0  0  0  0  0  0  0  0  0  0  0  0
    9.2119    2.7039   24.2989 C   0  0  0  0  0  0  0  0  0  0  0  0
   10.0174    3.7236   24.8117 C   0  0  0  0  0  0  0  0  0  0  0  0
    9.8976    5.0137   24.3168 C   0  0  0  0  0  0  0  0  0  0  0  0
    8.9864    5.2980   23.3181 C   0  0  0  0  0  0  0  0  0  0  0  0
    8.2030    4.2912   22.7742 C   0  0  0  0  0  0  0  0  0  0  0  0
    8.3317    2.9822   23.2431 C   0  0  0  0  0  0  0  0  0  0  0  0
    7.7563    1.8754   22.5712 N   0  0  0  0  0  0  0  0  0  0  0  0
    8.3028    1.2153   21.5181 C   0  0  0  0  0  0  0  0  0  0  0  0
    9.2907    1.6180   20.9098 O   0  0  0  0  0  0  0  0  0  0  0  0
    7.7183   -0.1576   21.1732 C   0  0  1  0  0  0  0  0  0  0  0  0
    6.8235   -0.6374   22.1754 O   0  0  0  0  0  0  0  0  0  0  0  0
    6.9251    0.1637   19.9154 C   0  0  0  0  0  0  0  0  0  0  0  0
    7.4787    0.0436   18.6482 C   0  0  0  0  0  0  0  0  0  0  0  0
    6.8765    0.4458   17.5224 N   0  0  0  0  0  0  0  0  0  0  0  0
    5.6527    0.9792   17.6368 C   0  0  0  0  0  0  0  0  0  0  0  0
    4.9970    1.1203   18.8439 C   0  0  0  0  0  0  0  0  0  0  0  0
    5.6472    0.7021   19.9918 C   0  0  0  0  0  0  0  0  0  0  0  0
   14.3874    0.6809   22.3250 H   0  0  0  0  0  0  0  0  0  0  0  0
   13.0652    1.4379   24.2831 H   0  0  0  0  0  0  0  0  0  0  0  0
   11.4853   -2.3440   21.5239 H   0  0  0  0  0  0  0  0  0  0  0  0
   10.1542   -1.5900   23.4758 H   0  0  0  0  0  0  0  0  0  0  0  0
    8.4836    0.9820   25.0114 H   0  0  0  0  0  0  0  0  0  0  0  0
   10.7320    3.5078   25.5922 H   0  0  0  0  0  0  0  0  0  0  0  0
   10.5206    5.8010   24.7147 H   0  0  0  0  0  0  0  0  0  0  0  0
    8.8835    6.3111   22.9584 H   0  0  0  0  0  0  0  0  0  0  0  0
    7.4955    4.5189   21.9905 H   0  0  0  0  0  0  0  0  0  0  0  0
    6.8697    1.5519   22.9018 H   0  0  0  0  0  0  0  0  0  0  0  0
    8.5216   -0.8766   20.9544 H   0  0  0  0  0  0  0  0  0  0  0  0
    6.8345   -1.5873   22.1819 H   0  0  0  0  0  0  0  0  0  0  0  0
    8.4585   -0.4032   18.5653 H   0  0  0  0  0  0  0  0  0  0  0  0
    5.1539    1.3155   16.7398 H   0  0  0  0  0  0  0  0  0  0  0  0
    4.0052    1.5450   18.8909 H   0  0  0  0  0  0  0  0  0  0  0  0
    5.1590    0.7946   20.9506 H   0  0  0  0  0  0  0  0  0  0  0  0
  1  2  1  0  0  0  0
  2  3  2  0  0  0  0
  2  5  1  0  0  0  0
  3  4  1  0  0  0  0
  3 29  1  0  0  0  0
  4  7  2  0  0  0  0
  4 30  1  0  0  0  0
  5  6  2  0  0  0  0
  5 31  1  0  0  0  0
  6  7  1  0  0  0  0
  6 32  1  0  0  0  0
  7  8  1  0  0  0  0
  8  9  2  0  0  0  0
  8 10  2  0  0  0  0
  8 11  1  0  0  0  0
 11 12  1  0  0  0  0
 11 33  1  0  0  0  0
 12 13  2  0  0  0  0
 12 17  1  0  0  0  0
 13 14  1  0  0  0  0
 13 34  1  0  0  0  0
 14 15  2  0  0  0  0
 14 35  1  0  0  0  0
 15 16  1  0  0  0  0
 15 36  1  0  0  0  0
 16 17  2  0  0  0  0
 16 37  1  0  0  0  0
 17 18  1  0  0  0  0
 18 19  1  0  0  0  0
 18 38  1  0  0  0  0
 19 20  2  0  0  0  0
 19 21  1  0  0  0  0
 21 22  1  0  0  0  0
 21 23  1  0  0  0  0
 21 39  1  0  0  0  0
 22 40  1  0  0  0  0
 23 24  2  0  0  0  0
 23 28  1  0  0  0  0
 24 25  1  0  0  0  0
 24 41  1  0  0  0  0
 25 26  2  0  0  0  0
 26 27  1  0  0  0  0
 26 42  1  0  0  0  0
 27 28  2  0  0  0  0
 27 43  1  0  0  0  0
 28 44  1  0  0  0  0
M  END
> <compound_name>
BAR-COM-4e090d3a-57

> <provenance>
{"isomeric_smiles": "c1ccc(c(c1)NC(=O)[C@H](c2cccnc2)O)NS(=O)(=O)c3ccc(cc3)F", "inchi": "InChI=1S/C19H16FN3O4S/c20-14-7-9-15(10-8-14)28(26,27)23-17-6-2-1-5-16(17)22-19(25)18(24)13-4-3-11-21-12-13/h1-12,18,23-24H,(H,22,25)/t18-/m0/s1", "inchi_key": "BPPBVZDPZTYCEJ-SFHVURJKSA-N", "fixed_inchi": "InChI=1/C19H16FN3O4S/c20-14-7-9-15(10-8-14)28(26,27)23-17-6-2-1-5-16(17)22-19(25)18(24)13-4-3-11-21-12-13/h1-12,18,23-24H,(H,22,25)/t18-/m0/s1/f/h22H", "fixed_inchikey": "BPPBVZDPZTYCEJ-XRGIMSDBNA-N"}

> <data_format>
sdf

$$$$
