LIG(A-306)
  -OEChem-06042511393D

 64 67  0     1  0  0  0  0  0999 V2000
   13.7057   -1.2987   21.5674 Cl  0  0  0  0  0  0  0  0  0  0  0  0
   12.4398   -0.6209   22.5449 C   0  0  0  0  0  0  0  0  0  0  0  0
   12.7363    0.2211   23.6115 C   0  0  0  0  0  0  0  0  0  0  0  0
   14.3641    0.7254   23.9341 Cl  0  0  0  0  0  0  0  0  0  0  0  0
   11.7240    0.6836   24.4248 C   0  0  0  0  0  0  0  0  0  0  0  0
   10.4153    0.3301   24.1605 C   0  0  0  0  0  0  0  0  0  0  0  0
   11.1261   -0.9633   22.2676 C   0  0  0  0  0  0  0  0  0  0  0  0
   10.0959   -0.4818   23.0759 C   0  0  0  0  0  0  0  0  0  0  0  0
    8.6291   -0.8112   22.7589 C   0  0  1  0  0  0  0  0  0  0  0  0
    8.5175   -2.2936   22.3846 C   0  0  0  0  0  0  0  0  0  0  0  0
    7.7943   -0.5705   23.9461 N   0  0  0  0  0  0  0  0  0  0  0  0
    7.3670    0.6023   24.4456 C   0  0  0  0  0  0  0  0  0  0  0  0
    7.3705    1.6577   23.8155 O   0  0  0  0  0  0  0  0  0  0  0  0
    6.9436    0.5951   25.9104 C   0  0  2  0  0  0  0  0  0  0  0  0
    5.5645    0.1941   26.0103 O   0  0  0  0  0  0  0  0  0  0  0  0
    5.1109    0.1988   27.3771 C   0  0  0  0  0  0  0  0  0  0  0  0
    5.2618    1.5784   27.9813 C   0  0  0  0  0  0  0  0  0  0  0  0
    7.1315    1.9737   26.5276 C   0  0  0  0  0  0  0  0  0  0  0  0
    6.6770    1.9844   27.9284 N   0  3  1  0  0  0  0  0  0  0  0  0
    7.1141    3.1530   28.7194 C   0  0  0  0  0  0  0  0  0  0  0  0
    6.5691    4.4758   28.2020 C   0  0  0  0  0  0  0  0  0  0  0  0
    6.8457    2.9707   30.2041 C   0  0  0  0  0  0  0  0  0  0  0  0
    8.1656    0.1298   21.5997 C   0  0  0  0  0  0  0  0  0  0  0  0
    8.4414    1.3237   21.6020 O   0  0  0  0  0  0  0  0  0  0  0  0
    7.5194   -0.4648   20.5765 N   0  0  0  0  0  0  0  0  0  0  0  0
    6.5510   -0.0392   19.6417 C   0  0  0  0  0  0  0  0  0  0  0  0
    5.4942    0.8628   20.0007 C   0  0  0  0  0  0  0  0  0  0  0  0
    5.0547    1.0775   21.3322 C   0  0  0  0  0  0  0  0  0  0  0  0
    3.9597    1.8505   21.5984 C   0  0  0  0  0  0  0  0  0  0  0  0
    3.2533    2.4558   20.5720 C   0  0  0  0  0  0  0  0  0  0  0  0
    3.6389    2.2902   19.2735 C   0  0  0  0  0  0  0  0  0  0  0  0
    4.7608    1.4862   18.9503 C   0  0  0  0  0  0  0  0  0  0  0  0
    5.1362    1.1936   17.6230 C   0  0  0  0  0  0  0  0  0  0  0  0
    6.0991    0.3516   17.2881 N   0  0  0  0  0  0  0  0  0  0  0  0
    6.7655   -0.2478   18.2806 C   0  0  0  0  0  0  0  0  0  0  0  0
   11.9536    1.3205   25.2663 H   0  0  0  0  0  0  0  0  0  0  0  0
    9.6272    0.6894   24.8056 H   0  0  0  0  0  0  0  0  0  0  0  0
   10.8999   -1.6023   21.4268 H   0  0  0  0  0  0  0  0  0  0  0  0
    7.4693   -2.5366   22.1562 H   0  0  0  0  0  0  0  0  0  0  0  0
    9.1416   -2.4968   21.5019 H   0  0  0  0  0  0  0  0  0  0  0  0
    8.8618   -2.9113   23.2272 H   0  0  0  0  0  0  0  0  0  0  0  0
    7.5070   -1.3866   24.4476 H   0  0  0  0  0  0  0  0  0  0  0  0
    7.5775   -0.1210   26.4538 H   0  0  0  0  0  0  0  0  0  0  0  0
    4.0516   -0.0959   27.4079 H   0  0  0  0  0  0  0  0  0  0  0  0
    5.7081   -0.5185   27.9591 H   0  0  0  0  0  0  0  0  0  0  0  0
    4.6526    2.2966   27.4130 H   0  0  0  0  0  0  0  0  0  0  0  0
    4.9246    1.5592   29.0282 H   0  0  0  0  0  0  0  0  0  0  0  0
    8.1975    2.2427   26.4920 H   0  0  0  0  0  0  0  0  0  0  0  0
    6.5485    2.7087   25.9534 H   0  0  0  0  0  0  0  0  0  0  0  0
    7.1636    1.2167   28.3454 H   0  0  0  0  0  0  0  0  0  0  0  0
    8.2074    3.2121   28.6128 H   0  0  0  0  0  0  0  0  0  0  0  0
    6.9342    5.2967   28.8366 H   0  0  0  0  0  0  0  0  0  0  0  0
    6.9090    4.6329   27.1677 H   0  0  0  0  0  0  0  0  0  0  0  0
    5.4696    4.4542   28.2273 H   0  0  0  0  0  0  0  0  0  0  0  0
    7.1862    3.8623   30.7509 H   0  0  0  0  0  0  0  0  0  0  0  0
    5.7669    2.8307   30.3669 H   0  0  0  0  0  0  0  0  0  0  0  0
    7.3894    2.0869   30.5690 H   0  0  0  0  0  0  0  0  0  0  0  0
    7.7856   -1.4207   20.4520 H   0  0  0  0  0  0  0  0  0  0  0  0
    5.5946    0.6224   22.1495 H   0  0  0  0  0  0  0  0  0  0  0  0
    3.6413    1.9911   22.6208 H   0  0  0  0  0  0  0  0  0  0  0  0
    2.3906    3.0637   20.8013 H   0  0  0  0  0  0  0  0  0  0  0  0
    3.0841    2.7763   18.4845 H   0  0  0  0  0  0  0  0  0  0  0  0
    4.6016    1.6903   16.8268 H   0  0  0  0  0  0  0  0  0  0  0  0
    7.5351   -0.9533   18.0039 H   0  0  0  0  0  0  0  0  0  0  0  0
  1  2  1  0  0  0  0
  2  3  2  0  0  0  0
  2  7  1  0  0  0  0
  3  4  1  0  0  0  0
  3  5  1  0  0  0  0
  5  6  2  0  0  0  0
  5 36  1  0  0  0  0
  6  8  1  0  0  0  0
  6 37  1  0  0  0  0
  7  8  2  0  0  0  0
  7 38  1  0  0  0  0
  8  9  1  0  0  0  0
  9 10  1  0  0  0  0
  9 11  1  0  0  0  0
  9 23  1  0  0  0  0
 10 39  1  0  0  0  0
 10 40  1  0  0  0  0
 10 41  1  0  0  0  0
 11 12  1  0  0  0  0
 11 42  1  0  0  0  0
 12 13  2  0  0  0  0
 12 14  1  0  0  0  0
 14 15  1  0  0  0  0
 14 18  1  0  0  0  0
 14 43  1  0  0  0  0
 15 16  1  0  0  0  0
 16 17  1  0  0  0  0
 16 44  1  0  0  0  0
 16 45  1  0  0  0  0
 17 19  1  0  0  0  0
 17 46  1  0  0  0  0
 17 47  1  0  0  0  0
 18 19  1  0  0  0  0
 18 48  1  0  0  0  0
 18 49  1  0  0  0  0
 19 20  1  0  0  0  0
 19 50  1  0  0  0  0
 20 21  1  0  0  0  0
 20 22  1  0  0  0  0
 20 51  1  0  0  0  0
 21 52  1  0  0  0  0
 21 53  1  0  0  0  0
 21 54  1  0  0  0  0
 22 55  1  0  0  0  0
 22 56  1  0  0  0  0
 22 57  1  0  0  0  0
 23 24  2  0  0  0  0
 23 25  1  0  0  0  0
 25 26  1  0  0  0  0
 25 58  1  0  0  0  0
 26 27  2  0  0  0  0
 26 35  1  0  0  0  0
 27 28  1  0  0  0  0
 27 32  1  0  0  0  0
 28 29  2  0  0  0  0
 28 59  1  0  0  0  0
 29 30  1  0  0  0  0
 29 60  1  0  0  0  0
 30 31  2  0  0  0  0
 30 61  1  0  0  0  0
 31 32  1  0  0  0  0
 31 62  1  0  0  0  0
 32 33  2  0  0  0  0
 33 34  1  0  0  0  0
 33 63  1  0  0  0  0
 34 35  2  0  0  0  0
 35 64  1  0  0  0  0
M  CHG  1  19   1
M  END
> <compound_name>
MAT-POS-e9e99895-2

> <provenance>
{"isomeric_smiles": "CC(C)[N@H+]1CCO[C@H](C1)C(=O)N[C@](C)(c2ccc(c(c2)Cl)Cl)C(=O)Nc3cncc4c3cccc4", "inchi": "InChI=1S/C26H28Cl2N4O3/c1-16(2)32-10-11-35-23(15-32)24(33)31-26(3,18-8-9-20(27)21(28)12-18)25(34)30-22-14-29-13-17-6-4-5-7-19(17)22/h4-9,12-14,16,23H,10-11,15H2,1-3H3,(H,30,34)(H,31,33)/p+1/t23-,26-/m1/s1", "inchi_key": "LWLQXUAOFURQPB-ZEQKJWHPSA-O", "fixed_inchi": "InChI=1/C26H28Cl2N4O3/c1-16(2)32-10-11-35-23(15-32)24(33)31-26(3,18-8-9-20(27)21(28)12-18)25(34)30-22-14-29-13-17-6-4-5-7-19(17)22/h4-9,12-14,16,23H,10-11,15H2,1-3H3,(H,30,34)(H,31,33)/p+1/t23-,26-/m1/s1/fC26H29Cl2N4O3/h30-32H/q+1", "fixed_inchikey": "LWLQXUAOFURQPB-VYAMFULHNA-O"}

> <data_format>
sdf

$$$$
