LIG(A-306)
  -OEChem-06042511423D

 58 61  0     1  0  0  0  0  0999 V2000
   10.7537    3.1211   24.1832 O   0  0  0  0  0  0  0  0  0  0  0  0
   10.4143    1.9698   23.9856 C   0  0  0  0  0  0  0  0  0  0  0  0
    9.1815    1.5095   24.3466 N   0  0  0  0  0  0  0  0  0  0  0  0
    8.2834    2.3656   25.1061 C   0  0  0  0  0  0  0  0  0  0  0  0
    7.4102    3.3283   24.3180 C   0  0  0  0  0  0  0  0  0  0  0  0
    6.4103    3.8168   24.8377 O   0  0  0  0  0  0  0  0  0  0  0  0
    7.7794    3.6108   23.0703 N   0  0  0  0  0  0  0  0  0  0  0  0
    7.0281    4.5196   22.2230 C   0  0  0  0  0  0  0  0  0  0  0  0
   11.3112    0.9982   23.3395 C   0  0  0  0  0  0  0  0  0  0  0  0
   12.6797    1.2706   23.2865 C   0  0  0  0  0  0  0  0  0  0  0  0
   13.5497    0.3788   22.6889 C   0  0  0  0  0  0  0  0  0  0  0  0
   13.0502   -0.7875   22.1512 C   0  0  0  0  0  0  0  0  0  0  0  0
   14.1219   -1.8424   21.2787 Cl  0  0  0  0  0  0  0  0  0  0  0  0
   11.7036   -1.0980   22.2110 C   0  0  0  0  0  0  0  0  0  0  0  0
   10.8146   -0.1911   22.7867 C   0  0  0  0  0  0  0  0  0  0  0  0
    9.3151   -0.4148   22.7529 C   0  0  1  0  0  0  0  0  0  0  0  0
    8.7346    0.1237   24.0828 C   0  0  1  0  0  0  0  0  0  0  0  0
    9.0400   -0.7987   25.2521 C   0  0  0  0  0  0  0  0  0  0  0  0
    8.6764    0.3353   21.5838 C   0  0  0  0  0  0  0  0  0  0  0  0
    9.0506    1.4632   21.2543 O   0  0  0  0  0  0  0  0  0  0  0  0
    7.6759   -0.3236   20.9608 N   0  0  0  0  0  0  0  0  0  0  0  0
    6.8975    0.1324   19.8762 C   0  0  0  0  0  0  0  0  0  0  0  0
    5.7473    0.9395   20.1485 C   0  0  0  0  0  0  0  0  0  0  0  0
    5.0010    1.4395   19.0401 C   0  0  0  0  0  0  0  0  0  0  0  0
    5.4329    1.0771   17.7382 C   0  0  0  0  0  0  0  0  0  0  0  0
    6.5034    0.3351   17.4893 N   0  0  0  0  0  0  0  0  0  0  0  0
    7.2067   -0.1135   18.5399 C   0  0  0  0  0  0  0  0  0  0  0  0
    5.3203    1.2888   21.4563 C   0  0  0  0  0  0  0  0  0  0  0  0
    4.2360    2.0941   21.6556 C   0  0  0  0  0  0  0  0  0  0  0  0
    3.5327    2.5879   20.5652 C   0  0  0  0  0  0  0  0  0  0  0  0
    3.8888    2.2766   19.2836 C   0  0  0  0  0  0  0  0  0  0  0  0
    2.1199    3.6195   20.8317 S   0  0  0  0  0  0  0  0  0  0  0  0
    1.2868    2.9873   21.8158 O   0  0  0  0  0  0  0  0  0  0  0  0
    1.5412    3.9321   19.5544 O   0  0  0  0  0  0  0  0  0  0  0  0
    2.7751    5.0948   21.5149 C   0  0  0  0  0  0  0  0  0  0  0  0
    7.6154    1.7123   25.6866 H   0  0  0  0  0  0  0  0  0  0  0  0
    8.8992    2.9642   25.7935 H   0  0  0  0  0  0  0  0  0  0  0  0
    8.6046    3.1812   22.7033 H   0  0  0  0  0  0  0  0  0  0  0  0
    7.5195    4.5978   21.2420 H   0  0  0  0  0  0  0  0  0  0  0  0
    6.0054    4.1367   22.0912 H   0  0  0  0  0  0  0  0  0  0  0  0
    6.9898    5.5128   22.6941 H   0  0  0  0  0  0  0  0  0  0  0  0
   13.0611    2.1853   23.7159 H   0  0  0  0  0  0  0  0  0  0  0  0
   14.6073    0.5931   22.6438 H   0  0  0  0  0  0  0  0  0  0  0  0
   11.3435   -2.0359   21.8147 H   0  0  0  0  0  0  0  0  0  0  0  0
    9.0988   -1.4899   22.6669 H   0  0  0  0  0  0  0  0  0  0  0  0
    7.6410    0.1448   23.9656 H   0  0  0  0  0  0  0  0  0  0  0  0
    8.6101   -0.3784   26.1733 H   0  0  0  0  0  0  0  0  0  0  0  0
    8.6013   -1.7894   25.0618 H   0  0  0  0  0  0  0  0  0  0  0  0
   10.1296   -0.8961   25.3673 H   0  0  0  0  0  0  0  0  0  0  0  0
    7.4628   -1.2372   21.3070 H   0  0  0  0  0  0  0  0  0  0  0  0
    4.8535    1.4276   16.8970 H   0  0  0  0  0  0  0  0  0  0  0  0
    8.0814   -0.7125   18.3338 H   0  0  0  0  0  0  0  0  0  0  0  0
    5.8633    0.9106   22.3097 H   0  0  0  0  0  0  0  0  0  0  0  0
    3.9260    2.3462   22.6590 H   0  0  0  0  0  0  0  0  0  0  0  0
    3.3193    2.6709   18.4550 H   0  0  0  0  0  0  0  0  0  0  0  0
    1.9566    5.8021   21.7145 H   0  0  0  0  0  0  0  0  0  0  0  0
    3.2968    4.8632   22.4551 H   0  0  0  0  0  0  0  0  0  0  0  0
    3.4833    5.5451   20.8038 H   0  0  0  0  0  0  0  0  0  0  0  0
  1  2  2  0  0  0  0
  2  3  1  0  0  0  0
  2  9  1  0  0  0  0
  3  4  1  0  0  0  0
  3 17  1  0  0  0  0
  4  5  1  0  0  0  0
  4 36  1  0  0  0  0
  4 37  1  0  0  0  0
  5  6  2  0  0  0  0
  5  7  1  0  0  0  0
  7  8  1  0  0  0  0
  7 38  1  0  0  0  0
  8 39  1  0  0  0  0
  8 40  1  0  0  0  0
  8 41  1  0  0  0  0
  9 10  2  0  0  0  0
  9 15  1  0  0  0  0
 10 11  1  0  0  0  0
 10 42  1  0  0  0  0
 11 12  2  0  0  0  0
 11 43  1  0  0  0  0
 12 13  1  0  0  0  0
 12 14  1  0  0  0  0
 14 15  2  0  0  0  0
 14 44  1  0  0  0  0
 15 16  1  0  0  0  0
 16 17  1  0  0  0  0
 16 19  1  0  0  0  0
 16 45  1  0  0  0  0
 17 18  1  0  0  0  0
 17 46  1  0  0  0  0
 18 47  1  0  0  0  0
 18 48  1  0  0  0  0
 18 49  1  0  0  0  0
 19 20  2  0  0  0  0
 19 21  1  0  0  0  0
 21 22  1  0  0  0  0
 21 50  1  0  0  0  0
 22 23  2  0  0  0  0
 22 27  1  0  0  0  0
 23 24  1  0  0  0  0
 23 28  1  0  0  0  0
 24 25  2  0  0  0  0
 24 31  1  0  0  0  0
 25 26  1  0  0  0  0
 25 51  1  0  0  0  0
 26 27  2  0  0  0  0
 27 52  1  0  0  0  0
 28 29  2  0  0  0  0
 28 53  1  0  0  0  0
 29 30  1  0  0  0  0
 29 54  1  0  0  0  0
 30 31  2  0  0  0  0
 30 32  1  0  0  0  0
 31 55  1  0  0  0  0
 32 33  2  0  0  0  0
 32 34  2  0  0  0  0
 32 35  1  0  0  0  0
 35 56  1  0  0  0  0
 35 57  1  0  0  0  0
 35 58  1  0  0  0  0
M  END
> <compound_name>
EDG-MED-ee636701-1

> <provenance>
{"isomeric_smiles": "C[C@@H]1[C@H](c2cc(ccc2C(=O)N1CC(=O)NC)Cl)C(=O)Nc3cncc4c3ccc(c4)S(=O)(=O)C", "inchi": "InChI=1S/C24H23ClN4O5S/c1-13-22(19-9-15(25)4-6-18(19)24(32)29(13)12-21(30)26-2)23(31)28-20-11-27-10-14-8-16(35(3,33)34)5-7-17(14)20/h4-11,13,22H,12H2,1-3H3,(H,26,30)(H,28,31)/t13-,22-/m1/s1", "inchi_key": "MZGOULQVWGBQGW-MCMMXHMISA-N", "fixed_inchi": "InChI=1/C24H23ClN4O5S/c1-13-22(19-9-15(25)4-6-18(19)24(32)29(13)12-21(30)26-2)23(31)28-20-11-27-10-14-8-16(35(3,33)34)5-7-17(14)20/h4-11,13,22H,12H2,1-3H3,(H,26,30)(H,28,31)/t13-,22-/m1/s1/f/h26,28H", "fixed_inchikey": "MZGOULQVWGBQGW-GZMKFJJZNA-N"}

> <data_format>
sdf

$$$$
