LIG(A-306)
  -OEChem-06042511403D

 41 42  0     0  0  0  0  0  0999 V2000
   13.9959   -1.4634   21.3917 Cl  0  0  0  0  0  0  0  0  0  0  0  0
   12.6740   -0.8606   22.3569 C   0  0  0  0  0  0  0  0  0  0  0  0
   12.9311    0.0504   23.3579 C   0  0  0  0  0  0  0  0  0  0  0  0
   11.8681    0.5303   24.1070 C   0  0  0  0  0  0  0  0  0  0  0  0
   10.5731    0.1133   23.8301 C   0  0  0  0  0  0  0  0  0  0  0  0
   11.3920   -1.2916   22.0730 C   0  0  0  0  0  0  0  0  0  0  0  0
   10.3200   -0.7807   22.8011 C   0  0  0  0  0  0  0  0  0  0  0  0
    8.9020   -1.1378   22.4113 C   0  0  0  0  0  0  0  0  0  0  0  0
    8.3389   -0.2118   21.3524 C   0  0  0  0  0  0  0  0  0  0  0  0
    8.9767    0.7493   20.9233 O   0  0  0  0  0  0  0  0  0  0  0  0
    7.0988   -0.5328   20.9235 N   0  0  0  0  0  0  0  0  0  0  0  0
    6.4857    0.0282   19.7786 C   0  0  0  0  0  0  0  0  0  0  0  0
    6.9455   -0.1188   18.4715 C   0  0  0  0  0  0  0  0  0  0  0  0
    6.3774    0.4662   17.4116 N   0  0  0  0  0  0  0  0  0  0  0  0
    5.2984    1.2252   17.6268 C   0  0  0  0  0  0  0  0  0  0  0  0
    4.7455    1.4521   18.8728 C   0  0  0  0  0  0  0  0  0  0  0  0
    5.3526    0.8481   19.9607 C   0  0  0  0  0  0  0  0  0  0  0  0
    4.8098    0.8490   21.2578 O   0  0  0  0  0  0  0  0  0  0  0  0
    4.8148    2.0720   22.1008 C   0  0  0  0  0  0  0  0  0  0  0  0
    6.1357    2.8021   21.9787 C   0  0  0  0  0  0  0  0  0  0  0  0
    4.6140    1.5519   23.5048 C   0  0  0  0  0  0  0  0  0  0  0  0
    3.6597    2.9579   21.6850 C   0  0  0  0  0  0  0  0  0  0  0  0
   13.9394    0.3836   23.5548 H   0  0  0  0  0  0  0  0  0  0  0  0
   12.0479    1.2311   24.9088 H   0  0  0  0  0  0  0  0  0  0  0  0
    9.7530    0.4898   24.4235 H   0  0  0  0  0  0  0  0  0  0  0  0
   11.2226   -2.0189   21.2928 H   0  0  0  0  0  0  0  0  0  0  0  0
    8.8920   -2.1664   22.0214 H   0  0  0  0  0  0  0  0  0  0  0  0
    8.2650   -1.0787   23.3060 H   0  0  0  0  0  0  0  0  0  0  0  0
    6.5819   -1.2094   21.4480 H   0  0  0  0  0  0  0  0  0  0  0  0
    7.8118   -0.7417   18.3046 H   0  0  0  0  0  0  0  0  0  0  0  0
    4.8288    1.6906   16.7727 H   0  0  0  0  0  0  0  0  0  0  0  0
    3.8729    2.0769   18.9934 H   0  0  0  0  0  0  0  0  0  0  0  0
    6.1173    3.7026   22.6101 H   0  0  0  0  0  0  0  0  0  0  0  0
    6.9515    2.1411   22.3068 H   0  0  0  0  0  0  0  0  0  0  0  0
    6.2984    3.0926   20.9303 H   0  0  0  0  0  0  0  0  0  0  0  0
    4.6034    2.3954   24.2109 H   0  0  0  0  0  0  0  0  0  0  0  0
    3.6566    1.0133   23.5628 H   0  0  0  0  0  0  0  0  0  0  0  0
    5.4357    0.8679   23.7633 H   0  0  0  0  0  0  0  0  0  0  0  0
    3.6536    3.8676   22.3033 H   0  0  0  0  0  0  0  0  0  0  0  0
    3.7729    3.2350   20.6265 H   0  0  0  0  0  0  0  0  0  0  0  0
    2.7131    2.4148   21.8227 H   0  0  0  0  0  0  0  0  0  0  0  0
  1  2  1  0  0  0  0
  2  3  2  0  0  0  0
  2  6  1  0  0  0  0
  3  4  1  0  0  0  0
  3 23  1  0  0  0  0
  4  5  2  0  0  0  0
  4 24  1  0  0  0  0
  5  7  1  0  0  0  0
  5 25  1  0  0  0  0
  6  7  2  0  0  0  0
  6 26  1  0  0  0  0
  7  8  1  0  0  0  0
  8  9  1  0  0  0  0
  8 27  1  0  0  0  0
  8 28  1  0  0  0  0
  9 10  2  0  0  0  0
  9 11  1  0  0  0  0
 11 12  1  0  0  0  0
 11 29  1  0  0  0  0
 12 13  2  0  0  0  0
 12 17  1  0  0  0  0
 13 14  1  0  0  0  0
 13 30  1  0  0  0  0
 14 15  2  0  0  0  0
 15 16  1  0  0  0  0
 15 31  1  0  0  0  0
 16 17  2  0  0  0  0
 16 32  1  0  0  0  0
 17 18  1  0  0  0  0
 18 19  1  0  0  0  0
 19 20  1  0  0  0  0
 19 21  1  0  0  0  0
 19 22  1  0  0  0  0
 20 33  1  0  0  0  0
 20 34  1  0  0  0  0
 20 35  1  0  0  0  0
 21 36  1  0  0  0  0
 21 37  1  0  0  0  0
 21 38  1  0  0  0  0
 22 39  1  0  0  0  0
 22 40  1  0  0  0  0
 22 41  1  0  0  0  0
M  END
> <compound_name>
JIN-POS-6dc588a4-6

> <provenance>
{"isomeric_smiles": "CC(C)(C)Oc1ccncc1NC(=O)Cc2cccc(c2)Cl", "inchi": "InChI=1S/C17H19ClN2O2/c1-17(2,3)22-15-7-8-19-11-14(15)20-16(21)10-12-5-4-6-13(18)9-12/h4-9,11H,10H2,1-3H3,(H,20,21)", "inchi_key": "QOGVQOIEARJILE-UHFFFAOYSA-N", "fixed_inchi": "InChI=1/C17H19ClN2O2/c1-17(2,3)22-15-7-8-19-11-14(15)20-16(21)10-12-5-4-6-13(18)9-12/h4-9,11H,10H2,1-3H3,(H,20,21)/f/h20H", "fixed_inchikey": "QOGVQOIEARJILE-UYBDAZJANA-N"}

> <data_format>
sdf

$$$$
