LIG(A-305)
  -OEChem-06042511313D

 34 35  0     0  0  0  0  0  0999 V2000
    8.6735    0.8725   21.3906 O   0  0  0  0  0  0  0  0  0  0  0  0
    8.3204   -0.2865   21.1845 C   0  0  0  0  0  0  0  0  0  0  0  0
    8.9524   -1.4566   21.9135 C   0  0  0  0  0  0  0  0  0  0  0  0
    9.9484   -0.9607   22.9364 C   0  0  0  0  0  0  0  0  0  0  0  0
   11.2654   -0.7198   22.5714 C   0  0  0  0  0  0  0  0  0  0  0  0
   12.1415   -0.0539   23.4144 C   0  0  0  0  0  0  0  0  0  0  0  0
   13.5335    0.2980   22.9584 C   0  0  0  0  0  0  0  0  0  0  0  0
   11.6826    0.3271   24.6695 C   0  0  0  0  0  0  0  0  0  0  0  0
    9.5295   -0.5827   24.2065 C   0  0  0  0  0  0  0  0  0  0  0  0
   10.3846    0.0652   25.0885 C   0  0  0  0  0  0  0  0  0  0  0  0
    9.9056    0.4982   26.4525 C   0  0  0  0  0  0  0  0  0  0  0  0
    7.4874   -0.6344   20.1585 N   0  0  0  0  0  0  0  0  0  0  0  0
    6.6324    0.0137   19.3006 C   0  0  0  0  0  0  0  0  0  0  0  0
    5.8505    1.1308   19.5927 N   0  0  0  0  0  0  0  0  0  0  0  0
    5.5376    1.6948   20.9037 C   0  0  0  0  0  0  0  0  0  0  0  0
    5.3485    1.5609   18.4287 C   0  0  0  0  0  0  0  0  0  0  0  0
    5.7484    0.7989   17.4536 N   0  0  0  0  0  0  0  0  0  0  0  0
    6.5553   -0.1912   17.9966 N   0  0  0  0  0  0  0  0  0  0  0  0
    8.1666   -2.0343   22.4223 H   0  0  0  0  0  0  0  0  0  0  0  0
    9.4688   -2.1009   21.1867 H   0  0  0  0  0  0  0  0  0  0  0  0
   11.6161   -1.0591   21.6079 H   0  0  0  0  0  0  0  0  0  0  0  0
   13.6811   -0.0517   21.9260 H   0  0  0  0  0  0  0  0  0  0  0  0
   13.6675    1.3890   22.9985 H   0  0  0  0  0  0  0  0  0  0  0  0
   14.2687   -0.1862   23.6180 H   0  0  0  0  0  0  0  0  0  0  0  0
   12.3553    0.8423   25.3391 H   0  0  0  0  0  0  0  0  0  0  0  0
    8.5168   -0.7975   24.5143 H   0  0  0  0  0  0  0  0  0  0  0  0
    9.9863    1.5917   26.5400 H   0  0  0  0  0  0  0  0  0  0  0  0
    8.8563    0.1962   26.5855 H   0  0  0  0  0  0  0  0  0  0  0  0
   10.5251    0.0220   27.2267 H   0  0  0  0  0  0  0  0  0  0  0  0
    7.5048   -1.6195   19.9874 H   0  0  0  0  0  0  0  0  0  0  0  0
    6.0237    1.0947   21.6870 H   0  0  0  0  0  0  0  0  0  0  0  0
    5.9048    2.7304   20.9544 H   0  0  0  0  0  0  0  0  0  0  0  0
    4.4484    1.6842   21.0568 H   0  0  0  0  0  0  0  0  0  0  0  0
    4.7028    2.4191   18.3153 H   0  0  0  0  0  0  0  0  0  0  0  0
  1  2  2  0  0  0  0
  2  3  1  0  0  0  0
  2 12  1  0  0  0  0
  3  4  1  0  0  0  0
  3 19  1  0  0  0  0
  3 20  1  0  0  0  0
  4  5  2  0  0  0  0
  4  9  1  0  0  0  0
  5  6  1  0  0  0  0
  5 21  1  0  0  0  0
  6  7  1  0  0  0  0
  6  8  2  0  0  0  0
  7 22  1  0  0  0  0
  7 23  1  0  0  0  0
  7 24  1  0  0  0  0
  8 10  1  0  0  0  0
  8 25  1  0  0  0  0
  9 10  2  0  0  0  0
  9 26  1  0  0  0  0
 10 11  1  0  0  0  0
 11 27  1  0  0  0  0
 11 28  1  0  0  0  0
 11 29  1  0  0  0  0
 12 13  1  0  0  0  0
 12 30  1  0  0  0  0
 13 14  1  0  0  0  0
 13 18  2  0  0  0  0
 14 15  1  0  0  0  0
 14 16  1  0  0  0  0
 15 31  1  0  0  0  0
 15 32  1  0  0  0  0
 15 33  1  0  0  0  0
 16 17  2  0  0  0  0
 16 34  1  0  0  0  0
 17 18  1  0  0  0  0
M  END
> <compound_name>
JAG-UCB-a3ef7265-18

> <provenance>
{"isomeric_smiles": "Cc1cc(cc(c1)CC(=O)Nc2nncn2C)C", "inchi": "InChI=1S/C13H16N4O/c1-9-4-10(2)6-11(5-9)7-12(18)15-13-16-14-8-17(13)3/h4-6,8H,7H2,1-3H3,(H,15,16,18)", "inchi_key": "UDMVRKGFUBDAMY-UHFFFAOYSA-N", "fixed_inchi": "InChI=1/C13H16N4O/c1-9-4-10(2)6-11(5-9)7-12(18)15-13-16-14-8-17(13)3/h4-6,8H,7H2,1-3H3,(H,15,16,18)/f/h15H", "fixed_inchikey": "UDMVRKGFUBDAMY-YAQRNVERNA-N"}

> <data_format>
sdf

$$$$
