LIG(A-305)
  -OEChem-06042511303D

 31 32  0     0  0  0  0  0  0999 V2000
    1.5922    3.7571   25.2383 C   0  0  0  0  0  0  0  0  0  0  0  0
    0.5963    4.4652   25.8973 C   0  0  0  0  0  0  0  0  0  0  0  0
   -0.7117    4.0014   25.9305 C   0  0  0  0  0  0  0  0  0  0  0  0
   -1.0329    2.8134   25.2936 C   0  0  0  0  0  0  0  0  0  0  0  0
   -0.0441    2.1033   24.6245 C   0  0  0  0  0  0  0  0  0  0  0  0
    1.2710    2.5641   24.5963 C   0  0  0  0  0  0  0  0  0  0  0  0
    2.3258    1.7500   23.8482 C   0  0  0  0  0  0  0  0  0  0  0  0
    4.4707    1.6467   22.4670 C   0  0  0  0  0  0  0  0  0  0  0  0
    3.9745    1.5807   21.0211 C   0  0  0  0  0  0  0  0  0  0  0  0
    4.9734    1.1056   19.9620 C   0  0  0  0  0  0  0  0  0  0  0  0
    5.9833    0.1795   20.2249 C   0  0  0  0  0  0  0  0  0  0  0  0
    6.8271   -0.1866   19.1758 C   0  0  0  0  0  0  0  0  0  0  0  0
    5.7391    1.1884   17.7069 C   0  0  0  0  0  0  0  0  0  0  0  0
    4.8603    1.6106   18.6900 C   0  0  0  0  0  0  0  0  0  0  0  0
    2.8762    4.2410   25.2311 F   0  0  0  0  0  0  0  0  0  0  0  0
    3.4648    2.4028   23.2121 N   0  0  0  0  0  0  0  0  0  0  0  0
    6.6901    0.3193   17.9578 N   0  0  0  0  0  0  0  0  0  0  0  0
    2.1927    0.5710   23.7883 O   0  0  0  0  0  0  0  0  0  0  0  0
    0.8435    5.3926   26.3926 H   0  0  0  0  0  0  0  0  0  0  0  0
   -1.4743    4.5630   26.4496 H   0  0  0  0  0  0  0  0  0  0  0  0
   -2.0466    2.4416   25.3172 H   0  0  0  0  0  0  0  0  0  0  0  0
   -0.2974    1.1827   24.1198 H   0  0  0  0  0  0  0  0  0  0  0  0
    4.5699    0.6329   22.8822 H   0  0  0  0  0  0  0  0  0  0  0  0
    5.4432    2.1586   22.5130 H   0  0  0  0  0  0  0  0  0  0  0  0
    3.1145    0.8952   20.9968 H   0  0  0  0  0  0  0  0  0  0  0  0
    3.6460    2.5913   20.7370 H   0  0  0  0  0  0  0  0  0  0  0  0
    6.1081   -0.2416   21.2115 H   0  0  0  0  0  0  0  0  0  0  0  0
    7.6143   -0.9025   19.3611 H   0  0  0  0  0  0  0  0  0  0  0  0
    5.6396    1.5848   16.7072 H   0  0  0  0  0  0  0  0  0  0  0  0
    4.0909    2.3321   18.4579 H   0  0  0  0  0  0  0  0  0  0  0  0
    3.5605    3.3954   23.2877 H   0  0  0  0  0  0  0  0  0  0  0  0
  1  2  2  0  0  0  0
  1  6  1  0  0  0  0
  1 15  1  0  0  0  0
  2  3  1  0  0  0  0
  2 19  1  0  0  0  0
  3  4  2  0  0  0  0
  3 20  1  0  0  0  0
  4  5  1  0  0  0  0
  4 21  1  0  0  0  0
  5  6  2  0  0  0  0
  5 22  1  0  0  0  0
  6  7  1  0  0  0  0
  7 16  1  0  0  0  0
  7 18  2  0  0  0  0
  8  9  1  0  0  0  0
  8 16  1  0  0  0  0
  8 23  1  0  0  0  0
  8 24  1  0  0  0  0
  9 10  1  0  0  0  0
  9 25  1  0  0  0  0
  9 26  1  0  0  0  0
 10 11  2  0  0  0  0
 10 14  1  0  0  0  0
 11 12  1  0  0  0  0
 11 27  1  0  0  0  0
 12 17  2  0  0  0  0
 12 28  1  0  0  0  0
 13 14  2  0  0  0  0
 13 17  1  0  0  0  0
 13 29  1  0  0  0  0
 14 30  1  0  0  0  0
 16 31  1  0  0  0  0
M  END
> <compound_name>
AAR-POS-d2a4d1df-10

> <provenance>
{"isomeric_smiles": "c1ccc(c(c1)C(=O)NCCc2ccncc2)F", "inchi": "InChI=1S/C14H13FN2O/c15-13-4-2-1-3-12(13)14(18)17-10-7-11-5-8-16-9-6-11/h1-6,8-9H,7,10H2,(H,17,18)", "inchi_key": "HQJMILNSKHZGJL-UHFFFAOYSA-N", "fixed_inchi": "InChI=1/C14H13FN2O/c15-13-4-2-1-3-12(13)14(18)17-10-7-11-5-8-16-9-6-11/h1-6,8-9H,7,10H2,(H,17,18)/f/h17H", "fixed_inchikey": "HQJMILNSKHZGJL-HCKMINDGNA-N"}

> <data_format>
sdf

$$$$
