LIG(A-305)
  -OEChem-06042511373D

 63 67  0     0  0  0  0  0  0999 V2000
    9.4011    1.0726   21.2010 O   0  0  0  0  0  0  0  0  0  0  0  0
    9.0980    0.0347   21.7751 C   0  0  0  0  0  0  0  0  0  0  0  0
    8.1988   -1.0002   21.0992 C   0  0  0  0  0  0  0  0  0  0  0  0
    7.3797   -0.4020   20.0673 N   0  0  0  0  0  0  0  0  0  0  0  0
    7.8085   -0.4020   18.7792 N   0  0  0  0  0  0  0  0  0  0  0  0
    6.9555    0.2651   18.0514 N   0  0  0  0  0  0  0  0  0  0  0  0
    6.2148    0.2922   20.1735 C   0  0  0  0  0  0  0  0  0  0  0  0
    5.9507    0.7183   18.8755 C   0  0  0  0  0  0  0  0  0  0  0  0
    4.8358    1.5094   18.6177 C   0  0  0  0  0  0  0  0  0  0  0  0
    4.0040    1.8586   19.6688 C   0  0  0  0  0  0  0  0  0  0  0  0
    5.3860    0.6223   21.2346 C   0  0  0  0  0  0  0  0  0  0  0  0
    4.2751    1.4115   20.9598 C   0  0  0  0  0  0  0  0  0  0  0  0
    3.3403    1.8016   21.8829 O   0  0  0  0  0  0  0  0  0  0  0  0
    3.5115    1.3946   23.2419 C   0  0  0  0  0  0  0  0  0  0  0  0
    9.5662   -0.2764   23.0200 N   0  0  0  0  0  0  0  0  0  0  0  0
   10.6684    0.5204   23.5649 C   0  0  0  0  0  0  0  0  0  0  0  0
   11.9333   -0.2788   23.7587 C   0  0  0  0  0  0  0  0  0  0  0  0
   12.3970   -0.9119   22.6666 N   0  0  0  0  0  0  0  0  0  0  0  0
   13.3519   -1.8430   22.8464 C   0  0  0  0  0  0  0  0  0  0  0  0
   13.8860   -2.1641   24.0813 C   0  0  0  0  0  0  0  0  0  0  0  0
   13.4333   -1.4731   25.1814 C   0  0  0  0  0  0  0  0  0  0  0  0
   12.4484   -0.5099   25.0306 C   0  0  0  0  0  0  0  0  0  0  0  0
    9.0981   -1.3704   23.8200 C   0  0  0  0  0  0  0  0  0  0  0  0
    9.7159   -2.6195   23.7509 C   0  0  0  0  0  0  0  0  0  0  0  0
    9.2518   -3.6674   24.5280 C   0  0  0  0  0  0  0  0  0  0  0  0
    8.1700   -3.5042   25.3841 C   0  0  0  0  0  0  0  0  0  0  0  0
    7.5752   -2.2512   25.4652 C   0  0  0  0  0  0  0  0  0  0  0  0
    8.0252   -1.1932   24.6952 C   0  0  0  0  0  0  0  0  0  0  0  0
    7.6109   -4.6772   26.1632 C   0  0  0  0  0  0  0  0  0  0  0  0
    6.0839   -4.7669   26.0894 C   0  0  0  0  0  0  0  0  0  0  0  0
    5.5798   -5.9879   26.8394 C   0  0  0  0  0  0  0  0  0  0  0  0
    6.0360   -5.9610   28.2474 N   0  3  0  0  0  0  0  0  0  0  0  0
    7.5140   -5.9132   28.3402 C   0  0  0  0  0  0  0  0  0  0  0  0
    8.0551   -4.6843   27.6291 C   0  0  0  0  0  0  0  0  0  0  0  0
    8.8293   -1.7799   20.6471 H   0  0  0  0  0  0  0  0  0  0  0  0
    7.5431   -1.4529   21.8575 H   0  0  0  0  0  0  0  0  0  0  0  0
    4.6222    1.8461   17.6139 H   0  0  0  0  0  0  0  0  0  0  0  0
    3.1404    2.4809   19.4864 H   0  0  0  0  0  0  0  0  0  0  0  0
    5.5955    0.2792   22.2371 H   0  0  0  0  0  0  0  0  0  0  0  0
    2.6827    1.7867   23.8498 H   0  0  0  0  0  0  0  0  0  0  0  0
    3.5189    0.2960   23.2973 H   0  0  0  0  0  0  0  0  0  0  0  0
    4.4649    1.7874   23.6250 H   0  0  0  0  0  0  0  0  0  0  0  0
   10.8792    1.3478   22.8713 H   0  0  0  0  0  0  0  0  0  0  0  0
   10.3585    0.9280   24.5384 H   0  0  0  0  0  0  0  0  0  0  0  0
   13.7217   -2.3687   21.9785 H   0  0  0  0  0  0  0  0  0  0  0  0
   14.6364   -2.9347   24.1790 H   0  0  0  0  0  0  0  0  0  0  0  0
   13.8438   -1.6804   26.1587 H   0  0  0  0  0  0  0  0  0  0  0  0
   12.0885    0.0492   25.8816 H   0  0  0  0  0  0  0  0  0  0  0  0
   10.5572   -2.7692   23.0905 H   0  0  0  0  0  0  0  0  0  0  0  0
    9.7397   -4.6290   24.4674 H   0  0  0  0  0  0  0  0  0  0  0  0
    6.7467   -2.1001   26.1414 H   0  0  0  0  0  0  0  0  0  0  0  0
    7.5455   -0.2286   24.7715 H   0  0  0  0  0  0  0  0  0  0  0  0
    8.0094   -5.5930   25.7022 H   0  0  0  0  0  0  0  0  0  0  0  0
    5.6471   -3.8623   26.5376 H   0  0  0  0  0  0  0  0  0  0  0  0
    5.7771   -4.8387   25.0354 H   0  0  0  0  0  0  0  0  0  0  0  0
    4.4801   -5.9976   26.8161 H   0  0  0  0  0  0  0  0  0  0  0  0
    5.9649   -6.8957   26.3521 H   0  0  0  0  0  0  0  0  0  0  0  0
    5.6562   -5.1521   28.6963 H   0  0  0  0  0  0  0  0  0  0  0  0
    5.7080   -6.7842   28.7107 H   0  0  0  0  0  0  0  0  0  0  0  0
    7.8087   -5.8771   29.3993 H   0  0  0  0  0  0  0  0  0  0  0  0
    7.9349   -6.8158   27.8730 H   0  0  0  0  0  0  0  0  0  0  0  0
    9.1541   -4.6935   27.6749 H   0  0  0  0  0  0  0  0  0  0  0  0
    7.6749   -3.7803   28.1275 H   0  0  0  0  0  0  0  0  0  0  0  0
  1  2  2  0  0  0  0
  2  3  1  0  0  0  0
  2 15  1  0  0  0  0
  3  4  1  0  0  0  0
  3 35  1  0  0  0  0
  3 36  1  0  0  0  0
  4  5  1  0  0  0  0
  4  7  1  0  0  0  0
  5  6  2  0  0  0  0
  6  8  1  0  0  0  0
  7  8  2  0  0  0  0
  7 11  1  0  0  0  0
  8  9  1  0  0  0  0
  9 10  2  0  0  0  0
  9 37  1  0  0  0  0
 10 12  1  0  0  0  0
 10 38  1  0  0  0  0
 11 12  2  0  0  0  0
 11 39  1  0  0  0  0
 12 13  1  0  0  0  0
 13 14  1  0  0  0  0
 14 40  1  0  0  0  0
 14 41  1  0  0  0  0
 14 42  1  0  0  0  0
 15 16  1  0  0  0  0
 15 23  1  0  0  0  0
 16 17  1  0  0  0  0
 16 43  1  0  0  0  0
 16 44  1  0  0  0  0
 17 18  2  0  0  0  0
 17 22  1  0  0  0  0
 18 19  1  0  0  0  0
 19 20  2  0  0  0  0
 19 45  1  0  0  0  0
 20 21  1  0  0  0  0
 20 46  1  0  0  0  0
 21 22  2  0  0  0  0
 21 47  1  0  0  0  0
 22 48  1  0  0  0  0
 23 24  2  0  0  0  0
 23 28  1  0  0  0  0
 24 25  1  0  0  0  0
 24 49  1  0  0  0  0
 25 26  2  0  0  0  0
 25 50  1  0  0  0  0
 26 27  1  0  0  0  0
 26 29  1  0  0  0  0
 27 28  2  0  0  0  0
 27 51  1  0  0  0  0
 28 52  1  0  0  0  0
 29 30  1  0  0  0  0
 29 34  1  0  0  0  0
 29 53  1  0  0  0  0
 30 31  1  0  0  0  0
 30 54  1  0  0  0  0
 30 55  1  0  0  0  0
 31 32  1  0  0  0  0
 31 56  1  0  0  0  0
 31 57  1  0  0  0  0
 32 33  1  0  0  0  0
 32 58  1  0  0  0  0
 32 59  1  0  0  0  0
 33 34  1  0  0  0  0
 33 60  1  0  0  0  0
 33 61  1  0  0  0  0
 34 62  1  0  0  0  0
 34 63  1  0  0  0  0
M  CHG  1  32   1
M  END
> <compound_name>
ALP-POS-c0c213c9-1

> <provenance>
{"isomeric_smiles": "COc1ccc2c(c1)n(nn2)CC(=O)N(Cc3ccccn3)c4ccc(cc4)C5CC[NH2+]CC5", "inchi": "InChI=1S/C26H28N6O2/c1-34-23-9-10-24-25(16-23)32(30-29-24)18-26(33)31(17-21-4-2-3-13-28-21)22-7-5-19(6-8-22)20-11-14-27-15-12-20/h2-10,13,16,20,27H,11-12,14-15,17-18H2,1H3/p+1", "inchi_key": "NIAFAWJPFVWDCR-UHFFFAOYSA-O", "fixed_inchi": "InChI=1/C26H28N6O2/c1-34-23-9-10-24-25(16-23)32(30-29-24)18-26(33)31(17-21-4-2-3-13-28-21)22-7-5-19(6-8-22)20-11-14-27-15-12-20/h2-10,13,16,20,27H,11-12,14-15,17-18H2,1H3/p+1/fC26H29N6O2/h27H/q+1", "fixed_inchikey": "NIAFAWJPFVWDCR-FXENNGCTNA-O"}

> <data_format>
sdf

$$$$
