LIG(A-305)
  -OEChem-06042511363D

 38 39  0     1  0  0  0  0  0999 V2000
    7.7785   -3.0877   23.4829 N   0  3  0  0  0  0  0  0  0  0  0  0
    6.6062    0.6606   17.4821 N   0  0  0  0  0  0  0  0  0  0  0  0
    5.4353    1.1887   17.8563 C   0  0  0  0  0  0  0  0  0  0  0  0
    9.2258   -0.4409   23.8238 C   0  0  0  0  0  0  0  0  0  0  0  0
    6.1684   -2.1835   21.5971 O   0  0  0  0  0  0  0  0  0  0  0  0
    7.3154   -1.7586   21.5130 C   0  0  0  0  0  0  0  0  0  0  0  0
   10.2359    0.3610   24.3467 C   0  0  0  0  0  0  0  0  0  0  0  0
    9.5026   -1.3989   22.8438 C   0  0  0  0  0  0  0  0  0  0  0  0
   10.8175   -1.5260   22.3926 C   0  0  0  0  0  0  0  0  0  0  0  0
   11.8146   -0.7481   22.9485 C   0  0  0  0  0  0  0  0  0  0  0  0
    5.7855    0.6716   20.1732 C   0  0  0  0  0  0  0  0  0  0  0  0
    7.3722    0.1215   18.4380 C   0  0  0  0  0  0  0  0  0  0  0  0
    7.0114    0.0735   19.7861 C   0  0  0  0  0  0  0  0  0  0  0  0
    4.9914    1.2117   19.1653 C   0  0  0  0  0  0  0  0  0  0  0  0
    5.4457    0.9426   21.6173 C   0  0  0  0  0  0  0  0  0  0  0  0
    7.5140    0.7532   25.0061 C   0  0  0  0  0  0  0  0  0  0  0  0
    7.7234   -0.8386   20.6100 N   0  0  0  0  0  0  0  0  0  0  0  0
    7.9138   -0.3618   24.2100 O   0  0  0  0  0  0  0  0  0  0  0  0
    8.4294   -2.3757   22.3738 C   0  0  1  0  0  0  0  0  0  0  0  0
   13.6316   -1.1082   22.4963 Br  0  0  0  0  0  0  0  0  0  0  0  0
   11.5388    0.2029   23.9066 C   0  0  0  0  0  0  0  0  0  0  0  0
    8.0800   -2.6975   24.3528 H   0  0  0  0  0  0  0  0  0  0  0  0
    6.7861   -2.9944   23.4019 H   0  0  0  0  0  0  0  0  0  0  0  0
    8.0261   -4.0560   23.4484 H   0  0  0  0  0  0  0  0  0  0  0  0
    4.8027    1.6203   17.0947 H   0  0  0  0  0  0  0  0  0  0  0  0
   10.0037    1.1051   25.0943 H   0  0  0  0  0  0  0  0  0  0  0  0
   11.0549   -2.2315   21.6101 H   0  0  0  0  0  0  0  0  0  0  0  0
    8.3239   -0.3005   18.1503 H   0  0  0  0  0  0  0  0  0  0  0  0
    4.0325    1.6469   19.4052 H   0  0  0  0  0  0  0  0  0  0  0  0
    6.1953    1.6216   22.0497 H   0  0  0  0  0  0  0  0  0  0  0  0
    4.4508    1.4080   21.6786 H   0  0  0  0  0  0  0  0  0  0  0  0
    5.4426   -0.0044   22.1771 H   0  0  0  0  0  0  0  0  0  0  0  0
    6.4406    0.6758   25.2337 H   0  0  0  0  0  0  0  0  0  0  0  0
    8.0882    0.7583   25.9443 H   0  0  0  0  0  0  0  0  0  0  0  0
    7.7054    1.6852   24.4540 H   0  0  0  0  0  0  0  0  0  0  0  0
    8.7164   -0.7913   20.5014 H   0  0  0  0  0  0  0  0  0  0  0  0
    8.9336   -3.1272   21.7483 H   0  0  0  0  0  0  0  0  0  0  0  0
   12.3299    0.8178   24.3095 H   0  0  0  0  0  0  0  0  0  0  0  0
  1 19  1  0  0  0  0
  1 22  1  0  0  0  0
  1 23  1  0  0  0  0
  1 24  1  0  0  0  0
  2  3  2  0  0  0  0
  2 12  1  0  0  0  0
  3 14  1  0  0  0  0
  3 25  1  0  0  0  0
  4  7  2  0  0  0  0
  4  8  1  0  0  0  0
  4 18  1  0  0  0  0
  5  6  2  0  0  0  0
  6 17  1  0  0  0  0
  6 19  1  0  0  0  0
  7 21  1  0  0  0  0
  7 26  1  0  0  0  0
  8  9  2  0  0  0  0
  8 19  1  0  0  0  0
  9 10  1  0  0  0  0
  9 27  1  0  0  0  0
 10 20  1  0  0  0  0
 10 21  2  0  0  0  0
 11 13  1  0  0  0  0
 11 14  2  0  0  0  0
 11 15  1  0  0  0  0
 12 13  2  0  0  0  0
 12 28  1  0  0  0  0
 13 17  1  0  0  0  0
 14 29  1  0  0  0  0
 15 30  1  0  0  0  0
 15 31  1  0  0  0  0
 15 32  1  0  0  0  0
 16 18  1  0  0  0  0
 16 33  1  0  0  0  0
 16 34  1  0  0  0  0
 16 35  1  0  0  0  0
 17 36  1  0  0  0  0
 19 37  1  0  0  0  0
 21 38  1  0  0  0  0
M  CHG  1   1   1
M  END
> <compound_name>
BAR-COM-0f94fc3d-58

> <provenance>
{"isomeric_smiles": "Cc1ccncc1NC(=O)[C@@H](c2cc(ccc2OC)Br)[NH3+]", "inchi": "InChI=1S/C15H16BrN3O2/c1-9-5-6-18-8-12(9)19-15(20)14(17)11-7-10(16)3-4-13(11)21-2/h3-8,14H,17H2,1-2H3,(H,19,20)/p+1/t14-/m1/s1", "inchi_key": "YBRJTZIFZNLYKE-CQSZACIVSA-O", "fixed_inchi": "InChI=1/C15H16BrN3O2/c1-9-5-6-18-8-12(9)19-15(20)14(17)11-7-10(16)3-4-13(11)21-2/h3-8,14H,17H2,1-2H3,(H,19,20)/p+1/t14-/m1/s1/fC15H17BrN3O2/h17,19H/q+1", "fixed_inchikey": "YBRJTZIFZNLYKE-KBLHKDPENA-O"}

> <data_format>
sdf

$$$$
