LIG(A-306)
  -OEChem-06042511423D

 55 58  0     1  0  0  0  0  0999 V2000
   10.7368    3.1697   24.3648 O   0  0  0  0  0  0  0  0  0  0  0  0
   10.3584    2.0294   24.1641 C   0  0  0  0  0  0  0  0  0  0  0  0
    9.0557    1.6501   24.3614 N   0  0  0  0  0  0  0  0  0  0  0  0
    8.1326    2.5527   25.0241 C   0  0  0  0  0  0  0  0  0  0  0  0
    7.5669    3.7178   24.2291 C   0  0  0  0  0  0  0  0  0  0  0  0
    6.9568    4.6202   24.7967 O   0  0  0  0  0  0  0  0  0  0  0  0
    7.7436    3.7011   22.9129 N   0  0  0  0  0  0  0  0  0  0  0  0
    7.0674    4.6340   22.0297 C   0  0  0  0  0  0  0  0  0  0  0  0
   11.2383    1.0378   23.5350 C   0  0  0  0  0  0  0  0  0  0  0  0
   12.5949    1.3337   23.3932 C   0  0  0  0  0  0  0  0  0  0  0  0
   13.4310    0.4745   22.7078 C   0  0  0  0  0  0  0  0  0  0  0  0
   12.9105   -0.6838   22.1780 C   0  0  0  0  0  0  0  0  0  0  0  0
   13.9712   -1.7788   21.3413 Cl  0  0  0  0  0  0  0  0  0  0  0  0
   11.5679   -0.9976   22.2876 C   0  0  0  0  0  0  0  0  0  0  0  0
   10.7068   -0.1182   22.9492 C   0  0  0  0  0  0  0  0  0  0  0  0
    9.2103   -0.3480   22.9213 C   0  0  1  0  0  0  0  0  0  0  0  0
    8.5728    0.2811   24.1606 C   0  0  0  0  0  0  0  0  0  0  0  0
    8.6345    0.3385   21.6778 C   0  0  0  0  0  0  0  0  0  0  0  0
    9.0367    1.4376   21.2903 O   0  0  0  0  0  0  0  0  0  0  0  0
    7.6201   -0.3304   21.0726 N   0  0  0  0  0  0  0  0  0  0  0  0
    6.8457    0.0788   19.9558 C   0  0  0  0  0  0  0  0  0  0  0  0
    5.7064    0.9089   20.1932 C   0  0  0  0  0  0  0  0  0  0  0  0
    5.0003    1.4231   19.0648 C   0  0  0  0  0  0  0  0  0  0  0  0
    5.4513    1.0406   17.7768 C   0  0  0  0  0  0  0  0  0  0  0  0
    6.4876    0.2416   17.5566 N   0  0  0  0  0  0  0  0  0  0  0  0
    7.1579   -0.2132   18.6273 C   0  0  0  0  0  0  0  0  0  0  0  0
    5.2313    1.2374   21.4869 C   0  0  0  0  0  0  0  0  0  0  0  0
    4.1360    2.0298   21.6621 C   0  0  0  0  0  0  0  0  0  0  0  0
    3.4749    2.5487   20.5578 C   0  0  0  0  0  0  0  0  0  0  0  0
    3.8791    2.2613   19.2792 C   0  0  0  0  0  0  0  0  0  0  0  0
    2.1562    3.7012   20.8008 S   0  0  0  0  0  0  0  0  0  0  0  0
    2.7269    4.9469   21.2310 O   0  0  0  0  0  0  0  0  0  0  0  0
    1.3421    3.7098   19.6180 O   0  0  0  0  0  0  0  0  0  0  0  0
    1.2221    3.0354   22.1216 C   0  0  0  0  0  0  0  0  0  0  0  0
    7.2799    1.9499   25.3698 H   0  0  0  0  0  0  0  0  0  0  0  0
    8.6584    2.9760   25.8926 H   0  0  0  0  0  0  0  0  0  0  0  0
    8.3632    3.0233   22.5171 H   0  0  0  0  0  0  0  0  0  0  0  0
    7.3635    4.4349   20.9892 H   0  0  0  0  0  0  0  0  0  0  0  0
    5.9789    4.5112   22.1309 H   0  0  0  0  0  0  0  0  0  0  0  0
    7.3469    5.6629   22.3000 H   0  0  0  0  0  0  0  0  0  0  0  0
   12.9935    2.2410   23.8226 H   0  0  0  0  0  0  0  0  0  0  0  0
   14.4787    0.7084   22.5892 H   0  0  0  0  0  0  0  0  0  0  0  0
   11.1878   -1.9158   21.8649 H   0  0  0  0  0  0  0  0  0  0  0  0
    8.9915   -1.4256   22.8910 H   0  0  0  0  0  0  0  0  0  0  0  0
    7.4805    0.2998   24.0331 H   0  0  0  0  0  0  0  0  0  0  0  0
    8.8286   -0.3237   25.0431 H   0  0  0  0  0  0  0  0  0  0  0  0
    7.3897   -1.2222   21.4621 H   0  0  0  0  0  0  0  0  0  0  0  0
    4.9174    1.4239   16.9198 H   0  0  0  0  0  0  0  0  0  0  0  0
    8.0063   -0.8563   18.4460 H   0  0  0  0  0  0  0  0  0  0  0  0
    5.7482    0.8516   22.3532 H   0  0  0  0  0  0  0  0  0  0  0  0
    3.7834    2.2532   22.6582 H   0  0  0  0  0  0  0  0  0  0  0  0
    3.3432    2.6735   18.4371 H   0  0  0  0  0  0  0  0  0  0  0  0
    0.3719    3.6981   22.3407 H   0  0  0  0  0  0  0  0  0  0  0  0
    0.8480    2.0399   21.8406 H   0  0  0  0  0  0  0  0  0  0  0  0
    1.8592    2.9493   23.0142 H   0  0  0  0  0  0  0  0  0  0  0  0
  1  2  2  0  0  0  0
  2  3  1  0  0  0  0
  2  9  1  0  0  0  0
  3  4  1  0  0  0  0
  3 17  1  0  0  0  0
  4  5  1  0  0  0  0
  4 35  1  0  0  0  0
  4 36  1  0  0  0  0
  5  6  2  0  0  0  0
  5  7  1  0  0  0  0
  7  8  1  0  0  0  0
  7 37  1  0  0  0  0
  8 38  1  0  0  0  0
  8 39  1  0  0  0  0
  8 40  1  0  0  0  0
  9 10  2  0  0  0  0
  9 15  1  0  0  0  0
 10 11  1  0  0  0  0
 10 41  1  0  0  0  0
 11 12  2  0  0  0  0
 11 42  1  0  0  0  0
 12 13  1  0  0  0  0
 12 14  1  0  0  0  0
 14 15  2  0  0  0  0
 14 43  1  0  0  0  0
 15 16  1  0  0  0  0
 16 17  1  0  0  0  0
 16 18  1  0  0  0  0
 16 44  1  0  0  0  0
 17 45  1  0  0  0  0
 17 46  1  0  0  0  0
 18 19  2  0  0  0  0
 18 20  1  0  0  0  0
 20 21  1  0  0  0  0
 20 47  1  0  0  0  0
 21 22  2  0  0  0  0
 21 26  1  0  0  0  0
 22 23  1  0  0  0  0
 22 27  1  0  0  0  0
 23 24  2  0  0  0  0
 23 30  1  0  0  0  0
 24 25  1  0  0  0  0
 24 48  1  0  0  0  0
 25 26  2  0  0  0  0
 26 49  1  0  0  0  0
 27 28  2  0  0  0  0
 27 50  1  0  0  0  0
 28 29  1  0  0  0  0
 28 51  1  0  0  0  0
 29 30  2  0  0  0  0
 29 31  1  0  0  0  0
 30 52  1  0  0  0  0
 31 32  2  0  0  0  0
 31 33  2  0  0  0  0
 31 34  1  0  0  0  0
 34 53  1  0  0  0  0
 34 54  1  0  0  0  0
 34 55  1  0  0  0  0
M  END
> <compound_name>
MAT-POS-2e8b2191-12

> <provenance>
{"isomeric_smiles": "CNC(=O)CN1C[C@H](c2cc(ccc2C1=O)Cl)C(=O)Nc3cncc4c3ccc(c4)S(=O)(=O)C", "inchi": "InChI=1S/C23H21ClN4O5S/c1-25-21(29)12-28-11-19(18-8-14(24)3-5-17(18)23(28)31)22(30)27-20-10-26-9-13-7-15(34(2,32)33)4-6-16(13)20/h3-10,19H,11-12H2,1-2H3,(H,25,29)(H,27,30)/t19-/m1/s1", "inchi_key": "WWUGNTBTHKNOGA-LJQANCHMSA-N", "fixed_inchi": "InChI=1/C23H21ClN4O5S/c1-25-21(29)12-28-11-19(18-8-14(24)3-5-17(18)23(28)31)22(30)27-20-10-26-9-13-7-15(34(2,32)33)4-6-16(13)20/h3-10,19H,11-12H2,1-2H3,(H,25,29)(H,27,30)/t19-/m1/s1/f/h25,27H", "fixed_inchikey": "WWUGNTBTHKNOGA-ZVSVGCRFNA-N"}

> <data_format>
sdf

$$$$
