LIG(A-305)
  -OEChem-06042511343D

 17 17  0     0  0  0  0  0  0999 V2000
    9.5281    5.1077   23.0010 N   0  0  0  0  0  0  0  0  0  0  0  0
   12.6113    1.0529   23.1511 C   0  0  0  0  0  0  0  0  0  0  0  0
   10.3681    5.1648   25.3060 O   0  0  0  0  0  0  0  0  0  0  0  0
   11.3713    1.1218   23.7922 C   0  0  0  0  0  0  0  0  0  0  0  0
   10.8303    2.3958   24.0551 C   0  0  0  0  0  0  0  0  0  0  0  0
   11.5042    3.5818   23.6891 C   0  0  0  0  0  0  0  0  0  0  0  0
   12.7502    3.4489   23.0590 C   0  0  0  0  0  0  0  0  0  0  0  0
   13.3092    2.2009   22.7911 C   0  0  0  0  0  0  0  0  0  0  0  0
   11.7340    6.1158   23.5109 O   0  0  0  0  0  0  0  0  0  0  0  0
   10.8441    5.1068   23.9790 S   0  0  0  0  0  0  0  0  0  0  0  0
   13.4104   -0.6991   22.6932 Br  0  0  0  0  0  0  0  0  0  0  0  0
    9.6040    5.8540   22.3398 H   0  0  0  0  0  0  0  0  0  0  0  0
    9.4734    4.2360   22.5141 H   0  0  0  0  0  0  0  0  0  0  0  0
   10.8430    0.2242   24.0778 H   0  0  0  0  0  0  0  0  0  0  0  0
    9.8733    2.4675   24.5505 H   0  0  0  0  0  0  0  0  0  0  0  0
   13.2915    4.3387   22.7736 H   0  0  0  0  0  0  0  0  0  0  0  0
   14.2730    2.1259   22.3095 H   0  0  0  0  0  0  0  0  0  0  0  0
  1 10  1  0  0  0  0
  1 12  1  0  0  0  0
  1 13  1  0  0  0  0
  2  4  2  0  0  0  0
  2  8  1  0  0  0  0
  2 11  1  0  0  0  0
  3 10  2  0  0  0  0
  4  5  1  0  0  0  0
  4 14  1  0  0  0  0
  5  6  2  0  0  0  0
  5 15  1  0  0  0  0
  6  7  1  0  0  0  0
  6 10  1  0  0  0  0
  7  8  2  0  0  0  0
  7 16  1  0  0  0  0
  8 17  1  0  0  0  0
  9 10  2  0  0  0  0
M  END
> <compound_name>
AAR-POS-d2a4d1df-15

> <provenance>
{"isomeric_smiles": "c1cc(ccc1S(=O)(=O)N)Br", "inchi": "InChI=1S/C6H6BrNO2S/c7-5-1-3-6(4-2-5)11(8,9)10/h1-4H,(H2,8,9,10)", "inchi_key": "STYQHICBPYRHQK-UHFFFAOYSA-N", "fixed_inchi": "InChI=1/C6H6BrNO2S/c7-5-1-3-6(4-2-5)11(8,9)10/h1-4H,(H2,8,9,10)/f/h8H2", "fixed_inchikey": "STYQHICBPYRHQK-FSHFIPFONA-N"}

> <data_format>
sdf

$$$$
