LIG(A-306)
  -OEChem-06042511383D

 34 36  0     0  0  0  0  0  0999 V2000
   13.9777   -1.4593   21.7891 Cl  0  0  0  0  0  0  0  0  0  0  0  0
   12.5203   -0.8668   22.5151 C   0  0  0  0  0  0  0  0  0  0  0  0
   12.5807    0.0263   23.5640 C   0  0  0  0  0  0  0  0  0  0  0  0
   13.7827    0.5280   23.9373 F   0  0  0  0  0  0  0  0  0  0  0  0
   11.2933   -1.3236   22.0768 C   0  0  0  0  0  0  0  0  0  0  0  0
   10.1226   -0.8953   22.6944 C   0  0  0  0  0  0  0  0  0  0  0  0
   10.2191   -0.0272   23.7763 C   0  0  0  0  0  0  0  0  0  0  0  0
   11.4441    0.4426   24.2136 C   0  0  0  0  0  0  0  0  0  0  0  0
    8.7764   -1.3061   22.1443 C   0  0  0  0  0  0  0  0  0  0  0  0
    8.2393   -0.2639   21.1841 C   0  0  0  0  0  0  0  0  0  0  0  0
    8.4981    0.9331   21.3094 O   0  0  0  0  0  0  0  0  0  0  0  0
    7.5691   -0.7686   20.1349 N   0  0  0  0  0  0  0  0  0  0  0  0
    6.5440   -0.2129   19.3481 C   0  0  0  0  0  0  0  0  0  0  0  0
    5.5805    0.6942   19.9029 C   0  0  0  0  0  0  0  0  0  0  0  0
    5.2590    0.7619   21.2834 C   0  0  0  0  0  0  0  0  0  0  0  0
    4.2462    1.5619   21.7334 C   0  0  0  0  0  0  0  0  0  0  0  0
    3.5071    2.3324   20.8499 C   0  0  0  0  0  0  0  0  0  0  0  0
    3.7786    2.3078   19.5135 C   0  0  0  0  0  0  0  0  0  0  0  0
    4.8153    1.4857   19.0015 C   0  0  0  0  0  0  0  0  0  0  0  0
    5.0647    1.3341   17.6202 C   0  0  0  0  0  0  0  0  0  0  0  0
    5.9403    0.4851   17.1095 N   0  0  0  0  0  0  0  0  0  0  0  0
    6.6374   -0.2694   17.9620 C   0  0  0  0  0  0  0  0  0  0  0  0
   11.2420   -2.0168   21.2503 H   0  0  0  0  0  0  0  0  0  0  0  0
    9.3196    0.2863   24.2852 H   0  0  0  0  0  0  0  0  0  0  0  0
   11.5060    1.1236   25.0496 H   0  0  0  0  0  0  0  0  0  0  0  0
    8.8822   -2.2636   21.6131 H   0  0  0  0  0  0  0  0  0  0  0  0
    8.0688   -1.4256   22.9779 H   0  0  0  0  0  0  0  0  0  0  0  0
    7.8447   -1.6924   19.8692 H   0  0  0  0  0  0  0  0  0  0  0  0
    5.8236    0.1717   21.9899 H   0  0  0  0  0  0  0  0  0  0  0  0
    4.0196    1.5939   22.7889 H   0  0  0  0  0  0  0  0  0  0  0  0
    2.7093    2.9575   21.2228 H   0  0  0  0  0  0  0  0  0  0  0  0
    3.1990    2.9201   18.8386 H   0  0  0  0  0  0  0  0  0  0  0  0
    4.5033    1.9524   16.9354 H   0  0  0  0  0  0  0  0  0  0  0  0
    7.3309   -0.9821   17.5405 H   0  0  0  0  0  0  0  0  0  0  0  0
  1  2  1  0  0  0  0
  2  3  2  0  0  0  0
  2  5  1  0  0  0  0
  3  4  1  0  0  0  0
  3  8  1  0  0  0  0
  5  6  2  0  0  0  0
  5 23  1  0  0  0  0
  6  7  1  0  0  0  0
  6  9  1  0  0  0  0
  7  8  2  0  0  0  0
  7 24  1  0  0  0  0
  8 25  1  0  0  0  0
  9 10  1  0  0  0  0
  9 26  1  0  0  0  0
  9 27  1  0  0  0  0
 10 11  2  0  0  0  0
 10 12  1  0  0  0  0
 12 13  1  0  0  0  0
 12 28  1  0  0  0  0
 13 14  2  0  0  0  0
 13 22  1  0  0  0  0
 14 15  1  0  0  0  0
 14 19  1  0  0  0  0
 15 16  2  0  0  0  0
 15 29  1  0  0  0  0
 16 17  1  0  0  0  0
 16 30  1  0  0  0  0
 17 18  2  0  0  0  0
 17 31  1  0  0  0  0
 18 19  1  0  0  0  0
 18 32  1  0  0  0  0
 19 20  2  0  0  0  0
 20 21  1  0  0  0  0
 20 33  1  0  0  0  0
 21 22  2  0  0  0  0
 22 34  1  0  0  0  0
M  END
> <compound_name>
RAL-THA-2d450e86-6

> <provenance>
{"isomeric_smiles": "c1ccc2c(c1)cncc2NC(=O)Cc3ccc(c(c3)Cl)F", "inchi": "InChI=1S/C17H12ClFN2O/c18-14-7-11(5-6-15(14)19)8-17(22)21-16-10-20-9-12-3-1-2-4-13(12)16/h1-7,9-10H,8H2,(H,21,22)", "inchi_key": "FVAXWBDMZWOKGB-UHFFFAOYSA-N", "fixed_inchi": "InChI=1/C17H12ClFN2O/c18-14-7-11(5-6-15(14)19)8-17(22)21-16-10-20-9-12-3-1-2-4-13(12)16/h1-7,9-10H,8H2,(H,21,22)/f/h21H", "fixed_inchikey": "FVAXWBDMZWOKGB-PKSOQXRJNA-N"}

> <data_format>
sdf

$$$$
