LIG(A-305)
  -OEChem-06042511363D

 52 55  0     0  0  0  0  0  0999 V2000
    9.0698    1.5972   21.2049 O   0  0  0  0  0  0  0  0  0  0  0  0
    8.9698    0.5112   21.7529 C   0  0  0  0  0  0  0  0  0  0  0  0
    8.3277   -0.6697   21.0269 C   0  0  0  0  0  0  0  0  0  0  0  0
    7.4447   -0.2076   19.9790 N   0  0  0  0  0  0  0  0  0  0  0  0
    6.2657    0.4634   20.0790 C   0  0  0  0  0  0  0  0  0  0  0  0
    5.4478    0.8095   21.1461 C   0  0  0  0  0  0  0  0  0  0  0  0
    4.3158    1.5656   20.8681 C   0  0  0  0  0  0  0  0  0  0  0  0
    4.0108    1.9486   19.5651 C   0  0  0  0  0  0  0  0  0  0  0  0
    4.8348    1.5936   18.5041 C   0  0  0  0  0  0  0  0  0  0  0  0
    5.9737    0.8395   18.7720 C   0  0  0  0  0  0  0  0  0  0  0  0
    6.9686    0.3684   17.9470 N   0  0  0  0  0  0  0  0  0  0  0  0
    7.8386   -0.2667   18.6810 N   0  0  0  0  0  0  0  0  0  0  0  0
    9.3868    0.2962   23.0339 N   0  0  0  0  0  0  0  0  0  0  0  0
    9.3407   -0.9688   23.6859 C   0  0  0  0  0  0  0  0  0  0  0  0
    8.4667   -1.1748   24.7449 C   0  0  0  0  0  0  0  0  0  0  0  0
    8.3767   -2.4168   25.3449 C   0  0  0  0  0  0  0  0  0  0  0  0
   10.1336   -2.0179   23.2389 C   0  0  0  0  0  0  0  0  0  0  0  0
   10.0285   -3.2659   23.8209 C   0  0  0  0  0  0  0  0  0  0  0  0
    9.1516   -3.4908   24.8889 C   0  0  0  0  0  0  0  0  0  0  0  0
    9.0425   -4.7368   25.4629 N   0  0  0  0  0  0  0  0  0  0  0  0
   10.1354   -5.6859   25.3788 C   0  0  0  0  0  0  0  0  0  0  0  0
    8.1215   -4.9888   26.5639 C   0  0  0  0  0  0  0  0  0  0  0  0
    9.9009    1.4321   23.8069 C   0  0  0  0  0  0  0  0  0  0  0  0
   11.3209    1.7980   23.4499 C   0  0  0  0  0  0  0  0  0  0  0  0
   11.5940    2.9350   22.6979 C   0  0  0  0  0  0  0  0  0  0  0  0
   12.8890    3.2259   22.3008 C   0  0  0  0  0  0  0  0  0  0  0  0
   13.9270    2.3828   22.6458 C   0  0  0  0  0  0  0  0  0  0  0  0
   13.6729    1.2578   23.4098 C   0  0  0  0  0  0  0  0  0  0  0  0
   12.3779    0.9709   23.8138 C   0  0  0  0  0  0  0  0  0  0  0  0
    9.1177   -1.2940   20.5841 H   0  0  0  0  0  0  0  0  0  0  0  0
    7.7502   -1.2663   21.7486 H   0  0  0  0  0  0  0  0  0  0  0  0
    5.6826    0.5025   22.1545 H   0  0  0  0  0  0  0  0  0  0  0  0
    3.6623    1.8607   21.6757 H   0  0  0  0  0  0  0  0  0  0  0  0
    3.1207    2.5303   19.3761 H   0  0  0  0  0  0  0  0  0  0  0  0
    4.5969    1.8957   17.4948 H   0  0  0  0  0  0  0  0  0  0  0  0
    7.8540   -0.3601   25.1019 H   0  0  0  0  0  0  0  0  0  0  0  0
    7.7009   -2.5607   26.1750 H   0  0  0  0  0  0  0  0  0  0  0  0
   10.8348   -1.8571   22.4333 H   0  0  0  0  0  0  0  0  0  0  0  0
   10.6315   -4.0800   23.4467 H   0  0  0  0  0  0  0  0  0  0  0  0
    9.8548   -6.6157   25.8954 H   0  0  0  0  0  0  0  0  0  0  0  0
   10.3508   -5.9042   24.3224 H   0  0  0  0  0  0  0  0  0  0  0  0
   11.0300   -5.2578   25.8547 H   0  0  0  0  0  0  0  0  0  0  0  0
    8.1938   -6.0431   26.8692 H   0  0  0  0  0  0  0  0  0  0  0  0
    8.3819   -4.3421   27.4148 H   0  0  0  0  0  0  0  0  0  0  0  0
    7.0934   -4.7710   26.2389 H   0  0  0  0  0  0  0  0  0  0  0  0
    9.2570    2.3038   23.6183 H   0  0  0  0  0  0  0  0  0  0  0  0
    9.8643    1.1735   24.8754 H   0  0  0  0  0  0  0  0  0  0  0  0
   10.7882    3.5984   22.4203 H   0  0  0  0  0  0  0  0  0  0  0  0
   13.0874    4.1145   21.7199 H   0  0  0  0  0  0  0  0  0  0  0  0
   14.9334    2.6009   22.3204 H   0  0  0  0  0  0  0  0  0  0  0  0
   14.4837    0.6025   23.6917 H   0  0  0  0  0  0  0  0  0  0  0  0
   12.1881    0.0958   24.4176 H   0  0  0  0  0  0  0  0  0  0  0  0
  1  2  2  0  0  0  0
  2  3  1  0  0  0  0
  2 13  1  0  0  0  0
  3  4  1  0  0  0  0
  3 30  1  0  0  0  0
  3 31  1  0  0  0  0
  4  5  1  0  0  0  0
  4 12  1  0  0  0  0
  5  6  2  0  0  0  0
  5 10  1  0  0  0  0
  6  7  1  0  0  0  0
  6 32  1  0  0  0  0
  7  8  2  0  0  0  0
  7 33  1  0  0  0  0
  8  9  1  0  0  0  0
  8 34  1  0  0  0  0
  9 10  2  0  0  0  0
  9 35  1  0  0  0  0
 10 11  1  0  0  0  0
 11 12  2  0  0  0  0
 13 14  1  0  0  0  0
 13 23  1  0  0  0  0
 14 15  2  0  0  0  0
 14 17  1  0  0  0  0
 15 16  1  0  0  0  0
 15 36  1  0  0  0  0
 16 19  2  0  0  0  0
 16 37  1  0  0  0  0
 17 18  2  0  0  0  0
 17 38  1  0  0  0  0
 18 19  1  0  0  0  0
 18 39  1  0  0  0  0
 19 20  1  0  0  0  0
 20 21  1  0  0  0  0
 20 22  1  0  0  0  0
 21 40  1  0  0  0  0
 21 41  1  0  0  0  0
 21 42  1  0  0  0  0
 22 43  1  0  0  0  0
 22 44  1  0  0  0  0
 22 45  1  0  0  0  0
 23 24  1  0  0  0  0
 23 46  1  0  0  0  0
 23 47  1  0  0  0  0
 24 25  2  0  0  0  0
 24 29  1  0  0  0  0
 25 26  1  0  0  0  0
 25 48  1  0  0  0  0
 26 27  2  0  0  0  0
 26 49  1  0  0  0  0
 27 28  1  0  0  0  0
 27 50  1  0  0  0  0
 28 29  2  0  0  0  0
 28 51  1  0  0  0  0
 29 52  1  0  0  0  0
M  END
> <compound_name>
ALP-POS-6d04362c-1

> <provenance>
{"isomeric_smiles": "CN(C)c1ccc(cc1)N(Cc2ccccc2)C(=O)Cn3c4ccccc4nn3", "inchi": "InChI=1S/C23H23N5O/c1-26(2)19-12-14-20(15-13-19)27(16-18-8-4-3-5-9-18)23(29)17-28-22-11-7-6-10-21(22)24-25-28/h3-15H,16-17H2,1-2H3", "inchi_key": "KOZCSUYCMLWBNN-UHFFFAOYSA-N", "fixed_inchi": "InChI=1/C23H23N5O/c1-26(2)19-12-14-20(15-13-19)27(16-18-8-4-3-5-9-18)23(29)17-28-22-11-7-6-10-21(22)24-25-28/h3-15H,16-17H2,1-2H3", "fixed_inchikey": "KOZCSUYCMLWBNN-UHFFFAOYNA-N"}

> <data_format>
sdf

$$$$
