LIG(A-305)
  -OEChem-06042511363D

 30 31  0     0  0  0  0  0  0999 V2000
    8.4625   -1.4257   20.8191 C   0  0  0  0  0  0  0  0  0  0  0  0
    7.4235   -1.7027   18.5182 C   0  0  0  0  0  0  0  0  0  0  0  0
    6.5865   -0.4086   18.4252 C   0  0  0  0  0  0  0  0  0  0  0  0
    5.6126   -0.0076   19.3372 C   0  0  0  0  0  0  0  0  0  0  0  0
    5.1136    1.1885   18.9012 C   0  0  0  0  0  0  0  0  0  0  0  0
    4.0187    2.0095   19.5842 C   0  0  0  0  0  0  0  0  0  0  0  0
    6.6114   -3.1296   20.4742 C   0  0  0  0  0  0  0  0  0  0  0  0
    5.8044   -4.5355   22.4502 C   0  0  0  0  0  0  0  0  0  0  0  0
    6.4924   -5.5496   23.3682 C   0  0  0  0  0  0  0  0  0  0  0  0
    6.0683   -5.9596   21.9512 C   0  0  0  0  0  0  0  0  0  0  0  0
    7.4995   -2.0966   19.9372 N   0  0  0  0  0  0  0  0  0  0  0  0
    6.6695    0.5404   17.4812 N   0  0  0  0  0  0  0  0  0  0  0  0
    6.6854   -3.4986   21.8972 N   0  0  0  0  0  0  0  0  0  0  0  0
    5.7536    1.4994   17.7852 O   0  0  0  0  0  0  0  0  0  0  0  0
    5.8354   -3.6656   19.7462 O   0  0  0  0  0  0  0  0  0  0  0  0
    9.0369   -0.6868   20.2411 H   0  0  0  0  0  0  0  0  0  0  0  0
    7.9229   -0.9165   21.6312 H   0  0  0  0  0  0  0  0  0  0  0  0
    9.1494   -2.1711   21.2463 H   0  0  0  0  0  0  0  0  0  0  0  0
    6.9419   -2.5011   17.9346 H   0  0  0  0  0  0  0  0  0  0  0  0
    8.4353   -1.5215   18.1265 H   0  0  0  0  0  0  0  0  0  0  0  0
    5.3080   -0.5425   20.2246 H   0  0  0  0  0  0  0  0  0  0  0  0
    4.3437    2.2828   20.5990 H   0  0  0  0  0  0  0  0  0  0  0  0
    3.8284    2.9231   19.0018 H   0  0  0  0  0  0  0  0  0  0  0  0
    3.0961    1.4133   19.6429 H   0  0  0  0  0  0  0  0  0  0  0  0
    4.7632   -4.2693   22.6847 H   0  0  0  0  0  0  0  0  0  0  0  0
    7.5590   -5.4359   23.6120 H   0  0  0  0  0  0  0  0  0  0  0  0
    5.9578   -5.9529   24.2408 H   0  0  0  0  0  0  0  0  0  0  0  0
    6.8308   -6.1396   21.1791 H   0  0  0  0  0  0  0  0  0  0  0  0
    5.2296   -6.6567   21.8079 H   0  0  0  0  0  0  0  0  0  0  0  0
    7.3427   -3.0383   22.4940 H   0  0  0  0  0  0  0  0  0  0  0  0
  1 11  1  0  0  0  0
  1 16  1  0  0  0  0
  1 17  1  0  0  0  0
  1 18  1  0  0  0  0
  2  3  1  0  0  0  0
  2 11  1  0  0  0  0
  2 19  1  0  0  0  0
  2 20  1  0  0  0  0
  3  4  1  0  0  0  0
  3 12  2  0  0  0  0
  4  5  2  0  0  0  0
  4 21  1  0  0  0  0
  5  6  1  0  0  0  0
  5 14  1  0  0  0  0
  6 22  1  0  0  0  0
  6 23  1  0  0  0  0
  6 24  1  0  0  0  0
  7 11  1  0  0  0  0
  7 13  1  0  0  0  0
  7 15  2  0  0  0  0
  8  9  1  0  0  0  0
  8 10  1  0  0  0  0
  8 13  1  0  0  0  0
  8 25  1  0  0  0  0
  9 10  1  0  0  0  0
  9 26  1  0  0  0  0
  9 27  1  0  0  0  0
 10 28  1  0  0  0  0
 10 29  1  0  0  0  0
 12 14  1  0  0  0  0
 13 30  1  0  0  0  0
M  END
> <compound_name>
AAR-POS-d2a4d1df-9

> <provenance>
{"isomeric_smiles": "Cc1cc(no1)CN(C)C(=O)NC2CC2", "inchi": "InChI=1S/C10H15N3O2/c1-7-5-9(12-15-7)6-13(2)10(14)11-8-3-4-8/h5,8H,3-4,6H2,1-2H3,(H,11,14)", "inchi_key": "QKUCRJSBLDVNFL-UHFFFAOYSA-N", "fixed_inchi": "InChI=1/C10H15N3O2/c1-7-5-9(12-15-7)6-13(2)10(14)11-8-3-4-8/h5,8H,3-4,6H2,1-2H3,(H,11,14)/f/h11H", "fixed_inchikey": "QKUCRJSBLDVNFL-WXRBYKJCNA-N"}

> <data_format>
sdf

$$$$
