LIG(A-305)
  -OEChem-06042511333D

 33 34  0     0  0  0  0  0  0999 V2000
    8.5379    2.2827   22.7844 O   0  0  0  0  0  0  0  0  0  0  0  0
    9.8429    1.7086   22.6084 S   0  0  0  0  0  0  0  0  0  0  0  0
   10.3809    1.6466   21.2794 O   0  0  0  0  0  0  0  0  0  0  0  0
   10.9750    2.5746   23.6294 C   0  0  0  0  0  0  0  0  0  0  0  0
    9.8198    0.0686   23.2704 C   0  0  0  0  0  0  0  0  0  0  0  0
    9.5768   -0.1144   24.6204 C   0  0  0  0  0  0  0  0  0  0  0  0
    9.4178   -1.3944   25.1154 C   0  0  0  0  0  0  0  0  0  0  0  0
    9.5127   -2.5014   24.2784 C   0  0  0  0  0  0  0  0  0  0  0  0
    9.8007   -2.2964   22.9274 C   0  0  0  0  0  0  0  0  0  0  0  0
    9.9558   -1.0184   22.4224 C   0  0  0  0  0  0  0  0  0  0  0  0
    9.2787   -3.7894   24.7754 N   0  0  0  0  0  0  0  0  0  0  0  0
    8.9647   -3.9883   26.1974 C   0  0  0  0  0  0  0  0  0  0  0  0
    8.2556   -5.3123   26.4084 C   0  0  0  0  0  0  0  0  0  0  0  0
    9.0366   -6.4173   25.8114 N   0  3  0  0  0  0  0  0  0  0  0  0
    9.2996   -6.1814   24.3804 C   0  0  0  0  0  0  0  0  0  0  0  0
   10.0666   -4.8924   24.2194 C   0  0  0  0  0  0  0  0  0  0  0  0
   11.9811    2.1472   23.5068 H   0  0  0  0  0  0  0  0  0  0  0  0
   10.9901    3.6362   23.3417 H   0  0  0  0  0  0  0  0  0  0  0  0
   10.6639    2.4840   24.6806 H   0  0  0  0  0  0  0  0  0  0  0  0
    9.5121    0.7368   25.2819 H   0  0  0  0  0  0  0  0  0  0  0  0
    9.2169   -1.5374   26.1669 H   0  0  0  0  0  0  0  0  0  0  0  0
    9.9036   -3.1463   22.2690 H   0  0  0  0  0  0  0  0  0  0  0  0
   10.1808   -0.8691   21.3767 H   0  0  0  0  0  0  0  0  0  0  0  0
    9.8990   -3.9823   26.7780 H   0  0  0  0  0  0  0  0  0  0  0  0
    8.3138   -3.1710   26.5415 H   0  0  0  0  0  0  0  0  0  0  0  0
    8.1388   -5.4928   27.4872 H   0  0  0  0  0  0  0  0  0  0  0  0
    7.2640   -5.2719   25.9340 H   0  0  0  0  0  0  0  0  0  0  0  0
    9.9092   -6.4961   26.2935 H   0  0  0  0  0  0  0  0  0  0  0  0
    8.5226   -7.2693   25.9111 H   0  0  0  0  0  0  0  0  0  0  0  0
    9.8916   -7.0144   23.9735 H   0  0  0  0  0  0  0  0  0  0  0  0
    8.3451   -6.1109   23.8383 H   0  0  0  0  0  0  0  0  0  0  0  0
   11.0252   -4.9656   24.7540 H   0  0  0  0  0  0  0  0  0  0  0  0
   10.2555   -4.7077   23.1516 H   0  0  0  0  0  0  0  0  0  0  0  0
  1  2  2  0  0  0  0
  2  3  2  0  0  0  0
  2  4  1  0  0  0  0
  2  5  1  0  0  0  0
  4 17  1  0  0  0  0
  4 18  1  0  0  0  0
  4 19  1  0  0  0  0
  5  6  2  0  0  0  0
  5 10  1  0  0  0  0
  6  7  1  0  0  0  0
  6 20  1  0  0  0  0
  7  8  2  0  0  0  0
  7 21  1  0  0  0  0
  8  9  1  0  0  0  0
  8 11  1  0  0  0  0
  9 10  2  0  0  0  0
  9 22  1  0  0  0  0
 10 23  1  0  0  0  0
 11 12  1  0  0  0  0
 11 16  1  0  0  0  0
 12 13  1  0  0  0  0
 12 24  1  0  0  0  0
 12 25  1  0  0  0  0
 13 14  1  0  0  0  0
 13 26  1  0  0  0  0
 13 27  1  0  0  0  0
 14 15  1  0  0  0  0
 14 28  1  0  0  0  0
 14 29  1  0  0  0  0
 15 16  1  0  0  0  0
 15 30  1  0  0  0  0
 15 31  1  0  0  0  0
 16 32  1  0  0  0  0
 16 33  1  0  0  0  0
M  CHG  1  14   1
M  END
> <compound_name>
AAR-POS-5507155c-1

> <provenance>
{"isomeric_smiles": "CS(=O)(=O)c1ccc(cc1)N2CC[NH2+]CC2", "inchi": "InChI=1S/C11H16N2O2S/c1-16(14,15)11-4-2-10(3-5-11)13-8-6-12-7-9-13/h2-5,12H,6-9H2,1H3/p+1", "inchi_key": "KNQFDOLIXOOIGX-UHFFFAOYSA-O", "fixed_inchi": "InChI=1/C11H16N2O2S/c1-16(14,15)11-4-2-10(3-5-11)13-8-6-12-7-9-13/h2-5,12H,6-9H2,1H3/p+1/fC11H17N2O2S/h12H/q+1", "fixed_inchikey": "KNQFDOLIXOOIGX-VKNQKPKGNA-O"}

> <data_format>
sdf

$$$$
