LIG(A-305)
  -OEChem-06042511353D

 28 29  0     1  0  0  0  0  0999 V2000
   13.5927   -0.5449   21.3481 F   0  0  0  0  0  0  0  0  0  0  0  0
   12.7187   -1.3279   22.1100 C   0  0  0  0  0  0  0  0  0  0  0  0
   11.5207   -0.4909   22.4711 C   0  0  2  0  0  0  0  0  0  0  0  0
   10.5857   -0.8579   23.5751 C   0  0  0  0  0  0  0  0  0  0  0  0
   10.1707   -1.0938   22.1440 C   0  0  1  0  0  0  0  0  0  0  0  0
    9.2418   -0.1097   21.4591 C   0  0  0  0  0  0  0  0  0  0  0  0
    9.6018    1.0323   21.1922 O   0  0  0  0  0  0  0  0  0  0  0  0
    8.0387   -0.6226   21.1151 N   0  0  0  0  0  0  0  0  0  0  0  0
    7.1308   -0.0595   20.1871 C   0  0  0  0  0  0  0  0  0  0  0  0
    5.9838    0.6145   20.6462 C   0  0  0  0  0  0  0  0  0  0  0  0
    5.6708    0.7504   22.1142 C   0  0  0  0  0  0  0  0  0  0  0  0
    7.3488   -0.1434   18.8111 C   0  0  0  0  0  0  0  0  0  0  0  0
    6.5248    0.3827   17.9002 N   0  0  0  0  0  0  0  0  0  0  0  0
    5.4398    1.0208   18.3492 C   0  0  0  0  0  0  0  0  0  0  0  0
    5.1348    1.1576   19.6892 C   0  0  0  0  0  0  0  0  0  0  0  0
   12.3979   -2.2024   21.5250 H   0  0  0  0  0  0  0  0  0  0  0  0
   13.2255   -1.6655   23.0261 H   0  0  0  0  0  0  0  0  0  0  0  0
   11.6169    0.5855   22.2658 H   0  0  0  0  0  0  0  0  0  0  0  0
   10.8162   -1.7133   24.2272 H   0  0  0  0  0  0  0  0  0  0  0  0
   10.0968   -0.0685   24.1647 H   0  0  0  0  0  0  0  0  0  0  0  0
   10.1559   -2.1337   21.7858 H   0  0  0  0  0  0  0  0  0  0  0  0
    7.7660   -1.4774   21.5565 H   0  0  0  0  0  0  0  0  0  0  0  0
    6.4884    1.2889   22.6157 H   0  0  0  0  0  0  0  0  0  0  0  0
    4.7324    1.3107   22.2385 H   0  0  0  0  0  0  0  0  0  0  0  0
    5.5627   -0.2494   22.5600 H   0  0  0  0  0  0  0  0  0  0  0  0
    8.2307   -0.6613   18.4640 H   0  0  0  0  0  0  0  0  0  0  0  0
    4.7650    1.4526   17.6250 H   0  0  0  0  0  0  0  0  0  0  0  0
    4.2416    1.6839   19.9918 H   0  0  0  0  0  0  0  0  0  0  0  0
  1  2  1  0  0  0  0
  2  3  1  0  0  0  0
  2 16  1  0  0  0  0
  2 17  1  0  0  0  0
  3  4  1  0  0  0  0
  3  5  1  0  0  0  0
  3 18  1  0  0  0  0
  4  5  1  0  0  0  0
  4 19  1  0  0  0  0
  4 20  1  0  0  0  0
  5  6  1  0  0  0  0
  5 21  1  0  0  0  0
  6  7  2  0  0  0  0
  6  8  1  0  0  0  0
  8  9  1  0  0  0  0
  8 22  1  0  0  0  0
  9 10  2  0  0  0  0
  9 12  1  0  0  0  0
 10 11  1  0  0  0  0
 10 15  1  0  0  0  0
 11 23  1  0  0  0  0
 11 24  1  0  0  0  0
 11 25  1  0  0  0  0
 12 13  2  0  0  0  0
 12 26  1  0  0  0  0
 13 14  1  0  0  0  0
 14 15  2  0  0  0  0
 14 27  1  0  0  0  0
 15 28  1  0  0  0  0
M  END
> <compound_name>
ERI-UCB-5b47150d-6

> <provenance>
{"isomeric_smiles": "Cc1ccncc1NC(=O)[C@@H]2C[C@H]2CF", "inchi": "InChI=1S/C11H13FN2O/c1-7-2-3-13-6-10(7)14-11(15)9-4-8(9)5-12/h2-3,6,8-9H,4-5H2,1H3,(H,14,15)/t8-,9+/m0/s1", "inchi_key": "TYFFVSFZMUBUOV-DTWKUNHWSA-N", "fixed_inchi": "InChI=1/C11H13FN2O/c1-7-2-3-13-6-10(7)14-11(15)9-4-8(9)5-12/h2-3,6,8-9H,4-5H2,1H3,(H,14,15)/t8-,9+/m0/s1/f/h14H", "fixed_inchikey": "TYFFVSFZMUBUOV-UIACVUGMNA-N"}

> <data_format>
sdf

$$$$
