LIG(A-305)
  -OEChem-06042511363D

 37 39  0     1  0  0  0  0  0999 V2000
    6.4272    0.6843   17.4598 N   0  0  0  0  0  0  0  0  0  0  0  0
   13.0923    4.0006   21.8404 N   0  0  0  0  0  0  0  0  0  0  0  0
    7.3774   -0.6203   20.8756 C   0  0  0  0  0  0  0  0  0  0  0  0
   12.4450    1.1986   23.1371 C   0  0  0  0  0  0  0  0  0  0  0  0
   12.7123    2.4405   23.6742 O   0  0  0  0  0  0  0  0  0  0  0  0
   11.8994   -1.3142   22.1099 C   0  0  0  0  0  0  0  0  0  0  0  0
    6.6224    0.1090   19.7878 C   0  0  0  0  0  0  0  0  0  0  0  0
    7.0392    0.0480   18.4687 C   0  0  0  0  0  0  0  0  0  0  0  0
    5.3464    1.4214   17.7631 C   0  0  0  0  0  0  0  0  0  0  0  0
    4.8505    1.5504   19.0481 C   0  0  0  0  0  0  0  0  0  0  0  0
   13.4848    0.3085   22.9179 C   0  0  0  0  0  0  0  0  0  0  0  0
   12.5047    4.8345   23.6485 C   0  0  0  0  0  0  0  0  0  0  0  0
   13.2045   -0.9494   22.4028 C   0  0  0  0  0  0  0  0  0  0  0  0
   12.1724    3.5347   22.9094 C   0  0  1  0  0  0  0  0  0  0  0  0
   13.1516    5.2526   22.3375 C   0  0  0  0  0  0  0  0  0  0  0  0
    8.6636    0.0785   21.2715 C   0  0  0  0  0  0  0  0  0  0  0  0
    9.5495   -0.7198   21.9073 N   0  0  0  0  0  0  0  0  0  0  0  0
    8.8637    1.2645   21.0156 O   0  0  0  0  0  0  0  0  0  0  0  0
   13.5477    6.3126   21.8486 O   0  0  0  0  0  0  0  0  0  0  0  0
   10.8656   -0.4080   22.3132 C   0  0  0  0  0  0  0  0  0  0  0  0
    5.5015    0.8801   20.0690 C   0  0  0  0  0  0  0  0  0  0  0  0
   11.1359    0.8489   22.8433 C   0  0  0  0  0  0  0  0  0  0  0  0
   13.5104    3.5538   21.0495 H   0  0  0  0  0  0  0  0  0  0  0  0
    6.7308   -0.6943   21.7625 H   0  0  0  0  0  0  0  0  0  0  0  0
    7.6231   -1.6303   20.5156 H   0  0  0  0  0  0  0  0  0  0  0  0
   11.6866   -2.3004   21.7247 H   0  0  0  0  0  0  0  0  0  0  0  0
    7.9100   -0.5481   18.2387 H   0  0  0  0  0  0  0  0  0  0  0  0
    4.8385    1.9398   16.9632 H   0  0  0  0  0  0  0  0  0  0  0  0
    3.9799    2.1570   19.2490 H   0  0  0  0  0  0  0  0  0  0  0  0
   14.5021    0.5908   23.1455 H   0  0  0  0  0  0  0  0  0  0  0  0
   11.6355    5.4351   23.9550 H   0  0  0  0  0  0  0  0  0  0  0  0
   13.1945    4.7274   24.4986 H   0  0  0  0  0  0  0  0  0  0  0  0
   14.0087   -1.6491   22.2290 H   0  0  0  0  0  0  0  0  0  0  0  0
   11.1180    3.4401   22.6105 H   0  0  0  0  0  0  0  0  0  0  0  0
    9.2342   -1.6454   22.1161 H   0  0  0  0  0  0  0  0  0  0  0  0
    5.1386    0.9565   21.0833 H   0  0  0  0  0  0  0  0  0  0  0  0
   10.3322    1.5472   23.0246 H   0  0  0  0  0  0  0  0  0  0  0  0
  1  8  2  0  0  0  0
  1  9  1  0  0  0  0
  2 14  1  0  0  0  0
  2 15  1  0  0  0  0
  2 23  1  0  0  0  0
  3  7  1  0  0  0  0
  3 16  1  0  0  0  0
  3 24  1  0  0  0  0
  3 25  1  0  0  0  0
  4  5  1  0  0  0  0
  4 11  2  0  0  0  0
  4 22  1  0  0  0  0
  5 14  1  0  0  0  0
  6 13  2  0  0  0  0
  6 20  1  0  0  0  0
  6 26  1  0  0  0  0
  7  8  1  0  0  0  0
  7 21  2  0  0  0  0
  8 27  1  0  0  0  0
  9 10  2  0  0  0  0
  9 28  1  0  0  0  0
 10 21  1  0  0  0  0
 10 29  1  0  0  0  0
 11 13  1  0  0  0  0
 11 30  1  0  0  0  0
 12 14  1  0  0  0  0
 12 15  1  0  0  0  0
 12 31  1  0  0  0  0
 12 32  1  0  0  0  0
 13 33  1  0  0  0  0
 14 34  1  0  0  0  0
 15 19  2  0  0  0  0
 16 17  1  0  0  0  0
 16 18  2  0  0  0  0
 17 20  1  0  0  0  0
 17 35  1  0  0  0  0
 20 22  2  0  0  0  0
 21 36  1  0  0  0  0
 22 37  1  0  0  0  0
M  END
> <compound_name>
RAL-MED-2de63afb-1

> <provenance>
{"isomeric_smiles": "c1cc(cc(c1)O[C@H]2CC(=O)N2)NC(=O)Cc3cccnc3", "inchi": "InChI=1S/C16H15N3O3/c20-14(7-11-3-2-6-17-10-11)18-12-4-1-5-13(8-12)22-16-9-15(21)19-16/h1-6,8,10,16H,7,9H2,(H,18,20)(H,19,21)/t16-/m0/s1", "inchi_key": "OCMQJJQEZJQFRH-INIZCTEOSA-N", "fixed_inchi": "InChI=1/C16H15N3O3/c20-14(7-11-3-2-6-17-10-11)18-12-4-1-5-13(8-12)22-16-9-15(21)19-16/h1-6,8,10,16H,7,9H2,(H,18,20)(H,19,21)/t16-/m0/s1/f/h18-19H", "fixed_inchikey": "OCMQJJQEZJQFRH-PZQLALHGNA-N"}

> <data_format>
sdf

$$$$
