LIG(A-306)
  -OEChem-06042511393D

 39 42  0     1  0  0  0  0  0999 V2000
   14.1450   -1.5198   21.1223 Cl  0  0  0  0  0  0  0  0  0  0  0  0
   13.1309   -0.7004   22.2766 C   0  0  0  0  0  0  0  0  0  0  0  0
   13.7137    0.1348   23.2137 C   0  0  0  0  0  0  0  0  0  0  0  0
   12.8952    0.7849   24.1261 C   0  0  0  0  0  0  0  0  0  0  0  0
   11.5169    0.6200   24.0695 C   0  0  0  0  0  0  0  0  0  0  0  0
   11.7595   -0.8823   22.2129 C   0  0  0  0  0  0  0  0  0  0  0  0
   10.9350   -0.1960   23.0995 C   0  0  0  0  0  0  0  0  0  0  0  0
    9.4148   -0.2761   22.9344 C   0  0  1  0  0  0  0  0  0  0  0  0
    8.7223    0.3159   24.0305 O   0  0  0  0  0  0  0  0  0  0  0  0
    8.9311    0.4562   21.6691 C   0  0  0  0  0  0  0  0  0  0  0  0
    9.3891    1.4915   21.2251 O   0  0  0  0  0  0  0  0  0  0  0  0
    7.8526   -0.2172   21.1759 N   0  0  0  0  0  0  0  0  0  0  0  0
    7.6201   -1.4991   21.8626 C   0  0  0  0  0  0  0  0  0  0  0  0
    8.8889   -1.7028   22.6864 C   0  0  0  0  0  0  0  0  0  0  0  0
    6.9914    0.2548   20.1334 C   0  0  0  0  0  0  0  0  0  0  0  0
    5.8882    1.1095   20.4439 C   0  0  0  0  0  0  0  0  0  0  0  0
    5.5473    1.5246   21.7610 C   0  0  0  0  0  0  0  0  0  0  0  0
    4.4760    2.3447   21.9853 C   0  0  0  0  0  0  0  0  0  0  0  0
    3.6907    2.7936   20.9266 C   0  0  0  0  0  0  0  0  0  0  0  0
    3.9807    2.4284   19.6427 C   0  0  0  0  0  0  0  0  0  0  0  0
    5.0850    1.5825   19.3633 C   0  0  0  0  0  0  0  0  0  0  0  0
    5.4399    1.1823   18.0513 C   0  0  0  0  0  0  0  0  0  0  0  0
    6.4682    0.3926   17.7662 N   0  0  0  0  0  0  0  0  0  0  0  0
    7.2095   -0.0520   18.7938 C   0  0  0  0  0  0  0  0  0  0  0  0
   14.7840    0.2776   23.2343 H   0  0  0  0  0  0  0  0  0  0  0  0
   13.3309    1.4210   24.8824 H   0  0  0  0  0  0  0  0  0  0  0  0
   10.8887    1.1296   24.7849 H   0  0  0  0  0  0  0  0  0  0  0  0
   11.3330   -1.5518   21.4807 H   0  0  0  0  0  0  0  0  0  0  0  0
    8.4410    1.1915   23.7923 H   0  0  0  0  0  0  0  0  0  0  0  0
    6.7351   -1.4410   22.5132 H   0  0  0  0  0  0  0  0  0  0  0  0
    7.4885   -2.3150   21.1366 H   0  0  0  0  0  0  0  0  0  0  0  0
    8.6592   -2.2044   23.6380 H   0  0  0  0  0  0  0  0  0  0  0  0
    9.6256   -2.2978   22.1267 H   0  0  0  0  0  0  0  0  0  0  0  0
    6.1432    1.1873   22.5962 H   0  0  0  0  0  0  0  0  0  0  0  0
    4.2366    2.6473   22.9940 H   0  0  0  0  0  0  0  0  0  0  0  0
    2.8450    3.4361   21.1224 H   0  0  0  0  0  0  0  0  0  0  0  0
    3.3634    2.7871   18.8324 H   0  0  0  0  0  0  0  0  0  0  0  0
    4.8359    1.5423   17.2316 H   0  0  0  0  0  0  0  0  0  0  0  0
    8.0420   -0.6999   18.5620 H   0  0  0  0  0  0  0  0  0  0  0  0
  1  2  1  0  0  0  0
  2  3  2  0  0  0  0
  2  6  1  0  0  0  0
  3  4  1  0  0  0  0
  3 25  1  0  0  0  0
  4  5  2  0  0  0  0
  4 26  1  0  0  0  0
  5  7  1  0  0  0  0
  5 27  1  0  0  0  0
  6  7  2  0  0  0  0
  6 28  1  0  0  0  0
  7  8  1  0  0  0  0
  8  9  1  0  0  0  0
  8 10  1  0  0  0  0
  8 14  1  0  0  0  0
  9 29  1  0  0  0  0
 10 11  2  0  0  0  0
 10 12  1  0  0  0  0
 12 13  1  0  0  0  0
 12 15  1  0  0  0  0
 13 14  1  0  0  0  0
 13 30  1  0  0  0  0
 13 31  1  0  0  0  0
 14 32  1  0  0  0  0
 14 33  1  0  0  0  0
 15 16  2  0  0  0  0
 15 24  1  0  0  0  0
 16 17  1  0  0  0  0
 16 21  1  0  0  0  0
 17 18  2  0  0  0  0
 17 34  1  0  0  0  0
 18 19  1  0  0  0  0
 18 35  1  0  0  0  0
 19 20  2  0  0  0  0
 19 36  1  0  0  0  0
 20 21  1  0  0  0  0
 20 37  1  0  0  0  0
 21 22  2  0  0  0  0
 22 23  1  0  0  0  0
 22 38  1  0  0  0  0
 23 24  2  0  0  0  0
 24 39  1  0  0  0  0
M  END
> <compound_name>
MAT-POS-8695a11f-1

> <provenance>
{"isomeric_smiles": "c1ccc2c(c1)cncc2N3CC[C@](C3=O)(c4cccc(c4)Cl)O", "inchi": "InChI=1S/C19H15ClN2O2/c20-15-6-3-5-14(10-15)19(24)8-9-22(18(19)23)17-12-21-11-13-4-1-2-7-16(13)17/h1-7,10-12,24H,8-9H2/t19-/m1/s1", "inchi_key": "YJEUVMCEEMSKGZ-LJQANCHMSA-N", "fixed_inchi": "InChI=1/C19H15ClN2O2/c20-15-6-3-5-14(10-15)19(24)8-9-22(18(19)23)17-12-21-11-13-4-1-2-7-16(13)17/h1-7,10-12,24H,8-9H2/t19-/m1/s1", "fixed_inchikey": "YJEUVMCEEMSKGZ-LJQANCHMNA-N"}

> <data_format>
sdf

$$$$
