LIG(A-306)
  -OEChem-06042511413D

 57 60  0     1  0  0  0  0  0999 V2000
   14.0834   -1.6232   21.2200 Cl  0  0  0  0  0  0  0  0  0  0  0  0
   12.9484   -0.8260   22.2773 C   0  0  0  0  0  0  0  0  0  0  0  0
   11.6196   -1.2080   22.2547 C   0  0  0  0  0  0  0  0  0  0  0  0
   13.3929    0.1879   23.0913 C   0  0  0  0  0  0  0  0  0  0  0  0
   12.4895    0.8218   23.9227 C   0  0  0  0  0  0  0  0  0  0  0  0
   11.1398    0.4787   23.9194 C   0  0  0  0  0  0  0  0  0  0  0  0
   10.2307    1.2200   24.8733 C   0  0  0  0  0  0  0  0  0  0  0  0
    8.8060    0.9252   24.6672 N   0  0  3  0  0  0  0  0  0  0  0  0
    7.6112    1.9067   25.0775 S   0  0  0  0  0  0  0  0  0  0  0  0
    6.3999    1.3690   24.5641 O   0  0  0  0  0  0  0  0  0  0  0  0
    7.7602    2.1704   26.4668 O   0  0  0  0  0  0  0  0  0  0  0  0
    7.9770    3.2440   24.2701 N   0  0  2  0  0  0  0  0  0  0  0  0
    8.5117    4.3770   25.0317 C   0  0  0  0  0  0  0  0  0  0  0  0
    7.3461    3.4800   22.9535 C   0  0  0  0  0  0  0  0  0  0  0  0
    6.1903    4.4512   23.0387 C   0  0  0  0  0  0  0  0  0  0  0  0
    5.3585    4.4606   23.9079 O   0  0  0  0  0  0  0  0  0  0  0  0
    6.2460    5.3411   22.0441 O   0  0  0  0  0  0  0  0  0  0  0  0
    5.4657    6.5510   22.2054 C   0  0  0  0  0  0  0  0  0  0  0  0
   10.6943   -0.5349   23.0564 C   0  0  0  0  0  0  0  0  0  0  0  0
    9.2096   -0.8281   22.9353 C   0  0  1  0  0  0  0  0  0  0  0  0
    8.4838   -0.4449   24.2244 C   0  0  0  0  0  0  0  0  0  0  0  0
    8.6210   -0.0498   21.7534 C   0  0  0  0  0  0  0  0  0  0  0  0
    9.1362    0.9872   21.3314 O   0  0  0  0  0  0  0  0  0  0  0  0
    7.4886   -0.5907   21.2219 N   0  0  0  0  0  0  0  0  0  0  0  0
    6.7284   -0.1194   20.1165 C   0  0  0  0  0  0  0  0  0  0  0  0
    5.5662    0.6809   20.3628 C   0  0  0  0  0  0  0  0  0  0  0  0
    5.0110    0.8897   21.6521 C   0  0  0  0  0  0  0  0  0  0  0  0
    3.8867    1.6493   21.8202 C   0  0  0  0  0  0  0  0  0  0  0  0
    3.2688    2.2502   20.7294 C   0  0  0  0  0  0  0  0  0  0  0  0
    3.7640    2.0804   19.4684 C   0  0  0  0  0  0  0  0  0  0  0  0
    4.9132    1.2820   19.2470 C   0  0  0  0  0  0  0  0  0  0  0  0
    5.4333    1.0183   17.9545 C   0  0  0  0  0  0  0  0  0  0  0  0
    6.4825    0.2432   17.7204 N   0  0  0  0  0  0  0  0  0  0  0  0
    7.0996   -0.3015   18.7815 C   0  0  0  0  0  0  0  0  0  0  0  0
   11.2989   -2.0217   21.6211 H   0  0  0  0  0  0  0  0  0  0  0  0
   14.4314    0.4846   23.0813 H   0  0  0  0  0  0  0  0  0  0  0  0
   12.8369    1.5983   24.5881 H   0  0  0  0  0  0  0  0  0  0  0  0
   10.5000    0.9383   25.9020 H   0  0  0  0  0  0  0  0  0  0  0  0
   10.3869    2.3001   24.7360 H   0  0  0  0  0  0  0  0  0  0  0  0
    8.7136    5.2156   24.3491 H   0  0  0  0  0  0  0  0  0  0  0  0
    7.7771    4.6893   25.7886 H   0  0  0  0  0  0  0  0  0  0  0  0
    9.4456    4.0763   25.5291 H   0  0  0  0  0  0  0  0  0  0  0  0
    8.1021    3.8887   22.2668 H   0  0  0  0  0  0  0  0  0  0  0  0
    6.9750    2.5215   22.5617 H   0  0  0  0  0  0  0  0  0  0  0  0
    5.5985    7.1940   21.3229 H   0  0  0  0  0  0  0  0  0  0  0  0
    4.4024    6.2900   22.3120 H   0  0  0  0  0  0  0  0  0  0  0  0
    5.8033    7.0877   23.1042 H   0  0  0  0  0  0  0  0  0  0  0  0
    9.0708   -1.9044   22.7555 H   0  0  0  0  0  0  0  0  0  0  0  0
    8.7759   -1.1498   25.0168 H   0  0  0  0  0  0  0  0  0  0  0  0
    7.3995   -0.5147   24.0531 H   0  0  0  0  0  0  0  0  0  0  0  0
    7.1506   -1.4215   21.6640 H   0  0  0  0  0  0  0  0  0  0  0  0
    5.4838    0.4417   22.5136 H   0  0  0  0  0  0  0  0  0  0  0  0
    3.4749    1.7839   22.8095 H   0  0  0  0  0  0  0  0  0  0  0  0
    2.3883    2.8571   20.8808 H   0  0  0  0  0  0  0  0  0  0  0  0
    3.2755    2.5589   18.6324 H   0  0  0  0  0  0  0  0  0  0  0  0
    4.9440    1.4777   17.1084 H   0  0  0  0  0  0  0  0  0  0  0  0
    7.9539   -0.9329   18.5870 H   0  0  0  0  0  0  0  0  0  0  0  0
  1  2  1  0  0  0  0
  2  3  2  0  0  0  0
  2  4  1  0  0  0  0
  3 19  1  0  0  0  0
  3 35  1  0  0  0  0
  4  5  2  0  0  0  0
  4 36  1  0  0  0  0
  5  6  1  0  0  0  0
  5 37  1  0  0  0  0
  6  7  1  0  0  0  0
  6 19  2  0  0  0  0
  7  8  1  0  0  0  0
  7 38  1  0  0  0  0
  7 39  1  0  0  0  0
  8  9  1  0  0  0  0
  8 21  1  0  0  0  0
  9 10  2  0  0  0  0
  9 11  2  0  0  0  0
  9 12  1  0  0  0  0
 12 13  1  0  0  0  0
 12 14  1  0  0  0  0
 13 40  1  0  0  0  0
 13 41  1  0  0  0  0
 13 42  1  0  0  0  0
 14 15  1  0  0  0  0
 14 43  1  0  0  0  0
 14 44  1  0  0  0  0
 15 16  2  0  0  0  0
 15 17  1  0  0  0  0
 17 18  1  0  0  0  0
 18 45  1  0  0  0  0
 18 46  1  0  0  0  0
 18 47  1  0  0  0  0
 19 20  1  0  0  0  0
 20 21  1  0  0  0  0
 20 22  1  0  0  0  0
 20 48  1  0  0  0  0
 21 49  1  0  0  0  0
 21 50  1  0  0  0  0
 22 23  2  0  0  0  0
 22 24  1  0  0  0  0
 24 25  1  0  0  0  0
 24 51  1  0  0  0  0
 25 26  2  0  0  0  0
 25 34  1  0  0  0  0
 26 27  1  0  0  0  0
 26 31  1  0  0  0  0
 27 28  2  0  0  0  0
 27 52  1  0  0  0  0
 28 29  1  0  0  0  0
 28 53  1  0  0  0  0
 29 30  2  0  0  0  0
 29 54  1  0  0  0  0
 30 31  1  0  0  0  0
 30 55  1  0  0  0  0
 31 32  2  0  0  0  0
 32 33  1  0  0  0  0
 32 56  1  0  0  0  0
 33 34  2  0  0  0  0
 34 57  1  0  0  0  0
M  END
> <compound_name>
MAT-POS-af1eef35-2

> <provenance>
{"isomeric_smiles": "C[N@](CC(=O)OC)S(=O)(=O)N1Cc2ccc(cc2[C@@H](C1)C(=O)Nc3cncc4c3cccc4)Cl", "inchi": "InChI=1S/C23H23ClN4O5S/c1-27(14-22(29)33-2)34(31,32)28-12-16-7-8-17(24)9-19(16)20(13-28)23(30)26-21-11-25-10-15-5-3-4-6-18(15)21/h3-11,20H,12-14H2,1-2H3,(H,26,30)/t20-/m1/s1", "inchi_key": "GLLFHKJANJSNEG-HXUWFJFHSA-N", "fixed_inchi": "InChI=1/C23H23ClN4O5S/c1-27(14-22(29)33-2)34(31,32)28-12-16-7-8-17(24)9-19(16)20(13-28)23(30)26-21-11-25-10-15-5-3-4-6-18(15)21/h3-11,20H,12-14H2,1-2H3,(H,26,30)/t20-/m1/s1/f/h26H", "fixed_inchikey": "GLLFHKJANJSNEG-CAXFFFRFNA-N"}

> <data_format>
sdf

$$$$
