LIG(A-306)
  -OEChem-06042511373D

 50 53  0     1  0  0  0  0  0999 V2000
    9.4577    1.1260   21.0545 O   0  0  0  0  0  0  0  0  0  0  0  0
    8.9291    0.1559   21.5826 C   0  0  0  0  0  0  0  0  0  0  0  0
    9.5344   -0.4640   22.8551 C   0  0  1  0  0  0  0  0  0  0  0  0
   11.0474   -0.1960   22.8891 C   0  0  0  0  0  0  0  0  0  0  0  0
   11.8926   -0.8845   22.0215 C   0  0  0  0  0  0  0  0  0  0  0  0
   13.2305   -0.5456   21.9696 C   0  0  0  0  0  0  0  0  0  0  0  0
   14.2584   -1.3545   20.8219 Cl  0  0  0  0  0  0  0  0  0  0  0  0
   13.7603    0.4407   22.7704 C   0  0  0  0  0  0  0  0  0  0  0  0
   12.9372    1.0993   23.6651 C   0  0  0  0  0  0  0  0  0  0  0  0
   11.5793    0.7954   23.7259 C   0  0  0  0  0  0  0  0  0  0  0  0
   10.7701    1.4889   24.5826 N   0  0  0  0  0  0  0  0  0  0  0  0
    9.3469    1.6005   24.3258 C   0  0  0  0  0  0  0  0  0  0  0  0
    8.7715    0.2389   24.0026 C   0  0  0  0  0  0  0  0  0  0  0  0
    9.3214   -1.9939   22.9229 C   0  0  0  0  0  0  0  0  0  0  0  0
    9.8436   -2.6138   24.2034 C   0  0  0  0  0  0  0  0  0  0  0  0
   10.0767   -3.9867   24.2565 O   0  0  0  0  0  0  0  0  0  0  0  0
   10.4449   -4.3935   25.5638 C   0  0  0  0  0  0  0  0  0  0  0  0
    7.7807   -0.3919   21.1177 N   0  0  0  0  0  0  0  0  0  0  0  0
    7.0506    0.0302   19.9887 C   0  0  0  0  0  0  0  0  0  0  0  0
    5.8608    0.7926   20.1926 C   0  0  0  0  0  0  0  0  0  0  0  0
    5.3421    1.1158   21.4705 C   0  0  0  0  0  0  0  0  0  0  0  0
    4.2362    1.9070   21.6013 C   0  0  0  0  0  0  0  0  0  0  0  0
    3.5901    2.4061   20.4841 C   0  0  0  0  0  0  0  0  0  0  0  0
    4.0409    2.1120   19.2311 C   0  0  0  0  0  0  0  0  0  0  0  0
    5.1887    1.3017   19.0494 C   0  0  0  0  0  0  0  0  0  0  0  0
    5.7294    0.9975   17.7753 C   0  0  0  0  0  0  0  0  0  0  0  0
    6.8272    0.2802   17.5855 N   0  0  0  0  0  0  0  0  0  0  0  0
    7.4603   -0.1800   18.6726 C   0  0  0  0  0  0  0  0  0  0  0  0
   11.5054   -1.6751   21.3958 H   0  0  0  0  0  0  0  0  0  0  0  0
   14.8071    0.6973   22.7006 H   0  0  0  0  0  0  0  0  0  0  0  0
   13.3492    1.8529   24.3199 H   0  0  0  0  0  0  0  0  0  0  0  0
   11.1905    2.2827   25.0221 H   0  0  0  0  0  0  0  0  0  0  0  0
    8.8464    2.0052   25.2178 H   0  0  0  0  0  0  0  0  0  0  0  0
    9.1823    2.2770   23.4742 H   0  0  0  0  0  0  0  0  0  0  0  0
    8.8274   -0.3912   24.9025 H   0  0  0  0  0  0  0  0  0  0  0  0
    7.7195    0.3611   23.7053 H   0  0  0  0  0  0  0  0  0  0  0  0
    8.2435   -2.2003   22.8490 H   0  0  0  0  0  0  0  0  0  0  0  0
    9.8427   -2.4573   22.0723 H   0  0  0  0  0  0  0  0  0  0  0  0
   10.7986   -2.1182   24.4323 H   0  0  0  0  0  0  0  0  0  0  0  0
    9.1123   -2.3827   24.9920 H   0  0  0  0  0  0  0  0  0  0  0  0
   10.6219   -5.4791   25.5743 H   0  0  0  0  0  0  0  0  0  0  0  0
   11.3637   -3.8694   25.8656 H   0  0  0  0  0  0  0  0  0  0  0  0
    9.6349   -4.1473   26.2661 H   0  0  0  0  0  0  0  0  0  0  0  0
    7.4153   -1.1721   21.6252 H   0  0  0  0  0  0  0  0  0  0  0  0
    5.8282    0.7307   22.3548 H   0  0  0  0  0  0  0  0  0  0  0  0
    3.8626    2.1453   22.5861 H   0  0  0  0  0  0  0  0  0  0  0  0
    2.7204    3.0348   20.6056 H   0  0  0  0  0  0  0  0  0  0  0  0
    3.5182    2.5004   18.3696 H   0  0  0  0  0  0  0  0  0  0  0  0
    5.2143    1.3742   16.9041 H   0  0  0  0  0  0  0  0  0  0  0  0
    8.3585   -0.7593   18.5175 H   0  0  0  0  0  0  0  0  0  0  0  0
  1  2  2  0  0  0  0
  2  3  1  0  0  0  0
  2 18  1  0  0  0  0
  3  4  1  0  0  0  0
  3 13  1  0  0  0  0
  3 14  1  0  0  0  0
  4  5  1  0  0  0  0
  4 10  2  0  0  0  0
  5  6  2  0  0  0  0
  5 29  1  0  0  0  0
  6  7  1  0  0  0  0
  6  8  1  0  0  0  0
  8  9  2  0  0  0  0
  8 30  1  0  0  0  0
  9 10  1  0  0  0  0
  9 31  1  0  0  0  0
 10 11  1  0  0  0  0
 11 12  1  0  0  0  0
 11 32  1  0  0  0  0
 12 13  1  0  0  0  0
 12 33  1  0  0  0  0
 12 34  1  0  0  0  0
 13 35  1  0  0  0  0
 13 36  1  0  0  0  0
 14 15  1  0  0  0  0
 14 37  1  0  0  0  0
 14 38  1  0  0  0  0
 15 16  1  0  0  0  0
 15 39  1  0  0  0  0
 15 40  1  0  0  0  0
 16 17  1  0  0  0  0
 17 41  1  0  0  0  0
 17 42  1  0  0  0  0
 17 43  1  0  0  0  0
 18 19  1  0  0  0  0
 18 44  1  0  0  0  0
 19 20  2  0  0  0  0
 19 28  1  0  0  0  0
 20 21  1  0  0  0  0
 20 25  1  0  0  0  0
 21 22  2  0  0  0  0
 21 45  1  0  0  0  0
 22 23  1  0  0  0  0
 22 46  1  0  0  0  0
 23 24  2  0  0  0  0
 23 47  1  0  0  0  0
 24 25  1  0  0  0  0
 24 48  1  0  0  0  0
 25 26  2  0  0  0  0
 26 27  1  0  0  0  0
 26 49  1  0  0  0  0
 27 28  2  0  0  0  0
 28 50  1  0  0  0  0
M  END
> <compound_name>
RAL-THA-4aa06b95-7

> <provenance>
{"isomeric_smiles": "COCC[C@]1(CCNc2c1cc(cc2)Cl)C(=O)Nc3cncc4c3cccc4", "inchi": "InChI=1S/C22H22ClN3O2/c1-28-11-9-22(8-10-25-19-7-6-16(23)12-18(19)22)21(27)26-20-14-24-13-15-4-2-3-5-17(15)20/h2-7,12-14,25H,8-11H2,1H3,(H,26,27)/t22-/m0/s1", "inchi_key": "KPHTXNLGFDQMPU-QFIPXVFZSA-N", "fixed_inchi": "InChI=1/C22H22ClN3O2/c1-28-11-9-22(8-10-25-19-7-6-16(23)12-18(19)22)21(27)26-20-14-24-13-15-4-2-3-5-17(15)20/h2-7,12-14,25H,8-11H2,1H3,(H,26,27)/t22-/m0/s1/f/h26H", "fixed_inchikey": "KPHTXNLGFDQMPU-LIJBUYAINA-N"}

> <data_format>
sdf

$$$$
