LIG(A-305)
  -OEChem-06042511333D

 31 32  0     0  0  0  0  0  0999 V2000
   14.4980   -1.7112   20.4881 N   0  0  0  0  0  0  0  0  0  0  0  0
   13.7649   -1.2993   21.2591 C   0  0  0  0  0  0  0  0  0  0  0  0
   12.8058   -0.8083   22.2140 C   0  0  0  0  0  0  0  0  0  0  0  0
   13.1807    0.0036   23.2831 C   0  0  0  0  0  0  0  0  0  0  0  0
   12.3177    0.4456   24.2070 N   0  0  0  0  0  0  0  0  0  0  0  0
   11.0287    0.1065   24.0559 C   0  0  0  0  0  0  0  0  0  0  0  0
   11.4638   -1.1584   22.0969 C   0  0  0  0  0  0  0  0  0  0  0  0
   10.5408   -0.6715   23.0159 C   0  0  0  0  0  0  0  0  0  0  0  0
    9.0558   -0.8515   22.7988 C   0  0  0  0  0  0  0  0  0  0  0  0
    8.6248   -0.0585   21.5808 C   0  0  0  0  0  0  0  0  0  0  0  0
    9.4268    0.5996   20.9319 O   0  0  0  0  0  0  0  0  0  0  0  0
    7.3098    0.0545   21.3907 N   0  0  0  0  0  0  0  0  0  0  0  0
    6.6919    0.3535   20.1557 C   0  0  0  0  0  0  0  0  0  0  0  0
    5.3729    0.8124   20.1636 C   0  0  0  0  0  0  0  0  0  0  0  0
    4.6418    1.0953   21.4516 C   0  0  0  0  0  0  0  0  0  0  0  0
    7.3300    0.1626   18.9257 C   0  0  0  0  0  0  0  0  0  0  0  0
    6.7720    0.4726   17.7517 N   0  0  0  0  0  0  0  0  0  0  0  0
    5.5340    0.9785   17.7776 C   0  0  0  0  0  0  0  0  0  0  0  0
    4.8049    1.1475   18.9386 C   0  0  0  0  0  0  0  0  0  0  0  0
   14.2182    0.2906   23.3707 H   0  0  0  0  0  0  0  0  0  0  0  0
   10.3239    0.4628   24.7927 H   0  0  0  0  0  0  0  0  0  0  0  0
   11.1406   -1.8059   21.2953 H   0  0  0  0  0  0  0  0  0  0  0  0
    8.8347   -1.9173   22.6397 H   0  0  0  0  0  0  0  0  0  0  0  0
    8.5094   -0.4917   23.6831 H   0  0  0  0  0  0  0  0  0  0  0  0
    6.7154   -0.0830   22.1830 H   0  0  0  0  0  0  0  0  0  0  0  0
    5.1789    1.8721   22.0158 H   0  0  0  0  0  0  0  0  0  0  0  0
    3.6234    1.4445   21.2259 H   0  0  0  0  0  0  0  0  0  0  0  0
    4.5893    0.1757   22.0529 H   0  0  0  0  0  0  0  0  0  0  0  0
    8.3251   -0.2571   18.9248 H   0  0  0  0  0  0  0  0  0  0  0  0
    5.0808    1.2702   16.8417 H   0  0  0  0  0  0  0  0  0  0  0  0
    3.7988    1.5377   18.8956 H   0  0  0  0  0  0  0  0  0  0  0  0
  1  2  3  0  0  0  0
  2  3  1  0  0  0  0
  3  4  2  0  0  0  0
  3  7  1  0  0  0  0
  4  5  1  0  0  0  0
  4 20  1  0  0  0  0
  5  6  2  0  0  0  0
  6  8  1  0  0  0  0
  6 21  1  0  0  0  0
  7  8  2  0  0  0  0
  7 22  1  0  0  0  0
  8  9  1  0  0  0  0
  9 10  1  0  0  0  0
  9 23  1  0  0  0  0
  9 24  1  0  0  0  0
 10 11  2  0  0  0  0
 10 12  1  0  0  0  0
 12 13  1  0  0  0  0
 12 25  1  0  0  0  0
 13 14  2  0  0  0  0
 13 16  1  0  0  0  0
 14 15  1  0  0  0  0
 14 19  1  0  0  0  0
 15 26  1  0  0  0  0
 15 27  1  0  0  0  0
 15 28  1  0  0  0  0
 16 17  2  0  0  0  0
 16 29  1  0  0  0  0
 17 18  1  0  0  0  0
 18 19  2  0  0  0  0
 18 30  1  0  0  0  0
 19 31  1  0  0  0  0
M  END
> <compound_name>
TRY-UNI-2eddb1ff-1

> <provenance>
{"isomeric_smiles": "Cc1ccncc1NC(=O)Cc2cc(cnc2)C#N", "inchi": "InChI=1S/C14H12N4O/c1-10-2-3-16-9-13(10)18-14(19)5-11-4-12(6-15)8-17-7-11/h2-4,7-9H,5H2,1H3,(H,18,19)", "inchi_key": "MAYMKKDCBJTHBQ-UHFFFAOYSA-N", "fixed_inchi": "InChI=1/C14H12N4O/c1-10-2-3-16-9-13(10)18-14(19)5-11-4-12(6-15)8-17-7-11/h2-4,7-9H,5H2,1H3,(H,18,19)/f/h18H", "fixed_inchikey": "MAYMKKDCBJTHBQ-GPQMBLKYNA-N"}

> <data_format>
sdf

$$$$
