LIG(A-307)
  -OEChem-06042511433D

 57 62  0     1  0  0  0  0  0999 V2000
   10.8808    3.1138   24.5371 O   0  0  0  0  0  0  0  0  0  0  0  0
   10.4935    2.0062   24.2027 C   0  0  0  0  0  0  0  0  0  0  0  0
    9.2158    1.5974   24.4529 N   0  0  0  0  0  0  0  0  0  0  0  0
    8.2366    2.4759   25.1555 C   0  0  0  0  0  0  0  0  0  0  0  0
    7.4697    1.8587   26.2946 C   0  0  0  0  0  0  0  0  0  0  0  0
    8.5636    2.8302   26.5822 C   0  0  0  0  0  0  0  0  0  0  0  0
    7.5015    3.5302   24.3668 C   0  0  0  0  0  0  0  0  0  0  0  0
    6.6239    4.1671   24.9351 O   0  0  0  0  0  0  0  0  0  0  0  0
    7.8276    3.7099   23.0916 N   0  0  0  0  0  0  0  0  0  0  0  0
    7.1163    4.6614   22.2565 C   0  0  0  0  0  0  0  0  0  0  0  0
   11.3896    1.0508   23.5228 C   0  0  0  0  0  0  0  0  0  0  0  0
   12.7640    1.2881   23.5337 C   0  0  0  0  0  0  0  0  0  0  0  0
   13.6322    0.4004   22.9211 C   0  0  0  0  0  0  0  0  0  0  0  0
   13.1199   -0.7225   22.3037 C   0  0  0  0  0  0  0  0  0  0  0  0
   14.2046   -1.7975   21.4641 Cl  0  0  0  0  0  0  0  0  0  0  0  0
   11.7663   -0.9968   22.2906 C   0  0  0  0  0  0  0  0  0  0  0  0
   10.8872   -0.0971   22.8902 C   0  0  0  0  0  0  0  0  0  0  0  0
    9.3778   -0.2807   22.8026 C   0  0  1  0  0  0  0  0  0  0  0  0
    8.7441    0.2540   24.1133 C   0  0  0  0  0  0  0  0  0  0  0  0
    8.7871    0.5192   21.6386 C   0  0  0  0  0  0  0  0  0  0  0  0
    9.1412    1.6263   21.2740 O   0  0  0  0  0  0  0  0  0  0  0  0
    7.7606   -0.2002   21.1032 N   0  0  0  0  0  0  0  0  0  0  0  0
    7.5842   -1.5091   21.7578 C   0  0  0  0  0  0  0  0  0  0  0  0
    8.9140   -1.7213   22.4815 C   0  0  0  0  0  0  0  0  0  0  0  0
    6.9063    0.2477   20.0436 C   0  0  0  0  0  0  0  0  0  0  0  0
    5.7649    1.0454   20.3548 C   0  0  0  0  0  0  0  0  0  0  0  0
    5.3548    1.3747   21.6755 C   0  0  0  0  0  0  0  0  0  0  0  0
    4.2604    2.1647   21.8986 C   0  0  0  0  0  0  0  0  0  0  0  0
    3.5222    2.6684   20.8322 C   0  0  0  0  0  0  0  0  0  0  0  0
    3.8773    2.3811   19.5457 C   0  0  0  0  0  0  0  0  0  0  0  0
    4.9987    1.5603   19.2695 C   0  0  0  0  0  0  0  0  0  0  0  0
    5.4138    1.2300   17.9497 C   0  0  0  0  0  0  0  0  0  0  0  0
    6.4773    0.4874   17.6658 N   0  0  0  0  0  0  0  0  0  0  0  0
    7.1906    0.0119   18.6984 C   0  0  0  0  0  0  0  0  0  0  0  0
    6.4218    2.1442   26.4694 H   0  0  0  0  0  0  0  0  0  0  0  0
    7.6043    0.7935   26.5338 H   0  0  0  0  0  0  0  0  0  0  0  0
    8.3215    3.8311   26.9687 H   0  0  0  0  0  0  0  0  0  0  0  0
    9.5040    2.4805   27.0332 H   0  0  0  0  0  0  0  0  0  0  0  0
    8.5784    3.1790   22.6987 H   0  0  0  0  0  0  0  0  0  0  0  0
    7.5441    4.6522   21.2431 H   0  0  0  0  0  0  0  0  0  0  0  0
    6.0531    4.3835   22.2081 H   0  0  0  0  0  0  0  0  0  0  0  0
    7.2125    5.6696   22.6858 H   0  0  0  0  0  0  0  0  0  0  0  0
   13.1531    2.1689   24.0226 H   0  0  0  0  0  0  0  0  0  0  0  0
   14.6964    0.5843   22.9265 H   0  0  0  0  0  0  0  0  0  0  0  0
   11.3944   -1.8961   21.8222 H   0  0  0  0  0  0  0  0  0  0  0  0
    7.6513    0.2835   23.9911 H   0  0  0  0  0  0  0  0  0  0  0  0
    9.0027   -0.4296   24.9354 H   0  0  0  0  0  0  0  0  0  0  0  0
    6.7470   -1.4836   22.4708 H   0  0  0  0  0  0  0  0  0  0  0  0
    7.4090   -2.3011   21.0147 H   0  0  0  0  0  0  0  0  0  0  0  0
    8.7722   -2.3044   23.4034 H   0  0  0  0  0  0  0  0  0  0  0  0
    9.6390   -2.2332   21.8317 H   0  0  0  0  0  0  0  0  0  0  0  0
    5.9162    0.9950   22.5163 H   0  0  0  0  0  0  0  0  0  0  0  0
    3.9669    2.3994   22.9111 H   0  0  0  0  0  0  0  0  0  0  0  0
    2.6612    3.2918   21.0238 H   0  0  0  0  0  0  0  0  0  0  0  0
    3.2969    2.7842   18.7290 H   0  0  0  0  0  0  0  0  0  0  0  0
    4.8264    1.6075   17.1258 H   0  0  0  0  0  0  0  0  0  0  0  0
    8.0506   -0.6004   18.4704 H   0  0  0  0  0  0  0  0  0  0  0  0
  1  2  2  0  0  0  0
  2  3  1  0  0  0  0
  2 11  1  0  0  0  0
  3  4  1  0  0  0  0
  3 19  1  0  0  0  0
  4  5  1  0  0  0  0
  4  6  1  0  0  0  0
  4  7  1  0  0  0  0
  5  6  1  0  0  0  0
  5 35  1  0  0  0  0
  5 36  1  0  0  0  0
  6 37  1  0  0  0  0
  6 38  1  0  0  0  0
  7  8  2  0  0  0  0
  7  9  1  0  0  0  0
  9 10  1  0  0  0  0
  9 39  1  0  0  0  0
 10 40  1  0  0  0  0
 10 41  1  0  0  0  0
 10 42  1  0  0  0  0
 11 12  2  0  0  0  0
 11 17  1  0  0  0  0
 12 13  1  0  0  0  0
 12 43  1  0  0  0  0
 13 14  2  0  0  0  0
 13 44  1  0  0  0  0
 14 15  1  0  0  0  0
 14 16  1  0  0  0  0
 16 17  2  0  0  0  0
 16 45  1  0  0  0  0
 17 18  1  0  0  0  0
 18 19  1  0  0  0  0
 18 20  1  0  0  0  0
 18 24  1  0  0  0  0
 19 46  1  0  0  0  0
 19 47  1  0  0  0  0
 20 21  2  0  0  0  0
 20 22  1  0  0  0  0
 22 23  1  0  0  0  0
 22 25  1  0  0  0  0
 23 24  1  0  0  0  0
 23 48  1  0  0  0  0
 23 49  1  0  0  0  0
 24 50  1  0  0  0  0
 24 51  1  0  0  0  0
 25 26  2  0  0  0  0
 25 34  1  0  0  0  0
 26 27  1  0  0  0  0
 26 31  1  0  0  0  0
 27 28  2  0  0  0  0
 27 52  1  0  0  0  0
 28 29  1  0  0  0  0
 28 53  1  0  0  0  0
 29 30  2  0  0  0  0
 29 54  1  0  0  0  0
 30 31  1  0  0  0  0
 30 55  1  0  0  0  0
 31 32  2  0  0  0  0
 32 33  1  0  0  0  0
 32 56  1  0  0  0  0
 33 34  2  0  0  0  0
 34 57  1  0  0  0  0
M  END
> <compound_name>
EDJ-MED-976a33d5-1

> <provenance>
{"isomeric_smiles": "CNC(=O)C1(CC1)N2C[C@]3(CCN(C3=O)c4cncc5c4cccc5)c6cc(ccc6C2=O)Cl", "inchi": "InChI=1S/C26H23ClN4O3/c1-28-23(33)26(8-9-26)31-15-25(20-12-17(27)6-7-19(20)22(31)32)10-11-30(24(25)34)21-14-29-13-16-4-2-3-5-18(16)21/h2-7,12-14H,8-11,15H2,1H3,(H,28,33)/t25-/m1/s1", "inchi_key": "FLEUPKADUSMVNQ-RUZDIDTESA-N", "fixed_inchi": "InChI=1/C26H23ClN4O3/c1-28-23(33)26(8-9-26)31-15-25(20-12-17(27)6-7-19(20)22(31)32)10-11-30(24(25)34)21-14-29-13-16-4-2-3-5-18(16)21/h2-7,12-14H,8-11,15H2,1H3,(H,28,33)/t25-/m1/s1/f/h28H", "fixed_inchikey": "FLEUPKADUSMVNQ-FGMFOJHFNA-N"}

> <data_format>
sdf

$$$$
