LIG(A-305)
  -OEChem-06042511373D

 33 35  0     0  0  0  0  0  0999 V2000
    9.2621    0.6345   21.0271 O   0  0  0  0  0  0  0  0  0  0  0  0
    8.6870   -0.4034   21.3472 C   0  0  0  0  0  0  0  0  0  0  0  0
    9.1470   -1.2424   22.5222 C   0  0  0  0  0  0  0  0  0  0  0  0
   10.5311   -0.8116   22.9370 C   0  0  0  0  0  0  0  0  0  0  0  0
   10.7463    0.1564   23.9120 C   0  0  0  0  0  0  0  0  0  0  0  0
   12.0414    0.5892   24.1439 C   0  0  0  0  0  0  0  0  0  0  0  0
   13.0942    0.0361   23.4288 C   0  0  0  0  0  0  0  0  0  0  0  0
   11.5349   -1.3648   22.2380 N   0  0  0  0  0  0  0  0  0  0  0  0
   12.7640   -0.9469   22.5098 C   0  0  0  0  0  0  0  0  0  0  0  0
   14.0338   -1.7941   21.6778 Cl  0  0  0  0  0  0  0  0  0  0  0  0
    7.5889   -0.8633   20.7203 N   0  0  0  0  0  0  0  0  0  0  0  0
    6.8449   -0.2142   19.7203 C   0  0  0  0  0  0  0  0  0  0  0  0
    5.7030    0.5440   20.1164 C   0  0  0  0  0  0  0  0  0  0  0  0
    5.2601    0.6591   21.4584 C   0  0  0  0  0  0  0  0  0  0  0  0
    4.1513    1.3923   21.7695 C   0  0  0  0  0  0  0  0  0  0  0  0
    3.4333    2.0423   20.7785 C   0  0  0  0  0  0  0  0  0  0  0  0
    3.8312    1.9822   19.4765 C   0  0  0  0  0  0  0  0  0  0  0  0
    4.9740    1.2331   19.1084 C   0  0  0  0  0  0  0  0  0  0  0  0
    5.4439    1.1350   17.7774 C   0  0  0  0  0  0  0  0  0  0  0  0
    6.5168    0.4458   17.4143 N   0  0  0  0  0  0  0  0  0  0  0  0
    7.1818   -0.2123   18.3693 C   0  0  0  0  0  0  0  0  0  0  0  0
    8.4526   -1.1057   23.3643 H   0  0  0  0  0  0  0  0  0  0  0  0
    9.1652   -2.3029   22.2305 H   0  0  0  0  0  0  0  0  0  0  0  0
    9.9203    0.5624   24.4769 H   0  0  0  0  0  0  0  0  0  0  0  0
   12.2315    1.3561   24.8801 H   0  0  0  0  0  0  0  0  0  0  0  0
   14.1151    0.3543   23.5803 H   0  0  0  0  0  0  0  0  0  0  0  0
    7.2660   -1.7683   20.9969 H   0  0  0  0  0  0  0  0  0  0  0  0
    5.8071    0.1602   22.2448 H   0  0  0  0  0  0  0  0  0  0  0  0
    3.8305    1.4663   22.7981 H   0  0  0  0  0  0  0  0  0  0  0  0
    2.5483    2.6030   21.0410 H   0  0  0  0  0  0  0  0  0  0  0  0
    3.2701    2.5104   18.7197 H   0  0  0  0  0  0  0  0  0  0  0  0
    4.8931    1.6550   17.0076 H   0  0  0  0  0  0  0  0  0  0  0  0
    8.0462   -0.7862   18.0700 H   0  0  0  0  0  0  0  0  0  0  0  0
  1  2  2  0  0  0  0
  2  3  1  0  0  0  0
  2 11  1  0  0  0  0
  3  4  1  0  0  0  0
  3 22  1  0  0  0  0
  3 23  1  0  0  0  0
  4  5  2  0  0  0  0
  4  8  1  0  0  0  0
  5  6  1  0  0  0  0
  5 24  1  0  0  0  0
  6  7  2  0  0  0  0
  6 25  1  0  0  0  0
  7  9  1  0  0  0  0
  7 26  1  0  0  0  0
  8  9  2  0  0  0  0
  9 10  1  0  0  0  0
 11 12  1  0  0  0  0
 11 27  1  0  0  0  0
 12 13  2  0  0  0  0
 12 21  1  0  0  0  0
 13 14  1  0  0  0  0
 13 18  1  0  0  0  0
 14 15  2  0  0  0  0
 14 28  1  0  0  0  0
 15 16  1  0  0  0  0
 15 29  1  0  0  0  0
 16 17  2  0  0  0  0
 16 30  1  0  0  0  0
 17 18  1  0  0  0  0
 17 31  1  0  0  0  0
 18 19  2  0  0  0  0
 19 20  1  0  0  0  0
 19 32  1  0  0  0  0
 20 21  2  0  0  0  0
 21 33  1  0  0  0  0
M  END
> <compound_name>
MAT-POS-afd4d4fd-2

> <provenance>
{"isomeric_smiles": "c1ccc2c(c1)cncc2NC(=O)Cc3cccc(n3)Cl", "inchi": "InChI=1S/C16H12ClN3O/c17-15-7-3-5-12(19-15)8-16(21)20-14-10-18-9-11-4-1-2-6-13(11)14/h1-7,9-10H,8H2,(H,20,21)", "inchi_key": "YZQKBSHQXMHNSJ-UHFFFAOYSA-N", "fixed_inchi": "InChI=1/C16H12ClN3O/c17-15-7-3-5-12(19-15)8-16(21)20-14-10-18-9-11-4-1-2-6-13(11)14/h1-7,9-10H,8H2,(H,20,21)/f/h20H", "fixed_inchikey": "YZQKBSHQXMHNSJ-UYBDAZJANA-N"}

> <data_format>
sdf

$$$$
