LIG(A-305)
  -OEChem-06042511333D

 33 34  0     0  0  0  0  0  0999 V2000
    8.5920    0.6372   24.9511 N   0  0  0  0  0  0  0  0  0  0  0  0
    7.8480    1.3992   24.0482 C   0  0  0  0  0  0  0  0  0  0  0  0
    8.3210    2.3972   23.4811 O   0  0  0  0  0  0  0  0  0  0  0  0
    9.9760    0.9682   25.2771 C   0  0  0  0  0  0  0  0  0  0  0  0
    4.1900    0.2932   24.7623 C   0  0  0  0  0  0  0  0  0  0  0  0
    4.3619    0.9882   22.4903 C   0  0  0  0  0  0  0  0  0  0  0  0
    5.7579    1.5952   22.7352 C   0  0  0  0  0  0  0  0  0  0  0  0
   10.8960    0.3442   24.2651 C   0  0  0  0  0  0  0  0  0  0  0  0
   12.0600    1.0041   23.8810 C   0  0  0  0  0  0  0  0  0  0  0  0
   12.9079    0.4251   22.9400 C   0  0  0  0  0  0  0  0  0  0  0  0
   12.5709   -0.8109   22.3770 C   0  0  0  0  0  0  0  0  0  0  0  0
   13.4089   -1.3839   21.3950 C   0  0  0  0  0  0  0  0  0  0  0  0
   11.4109   -1.4789   22.7621 C   0  0  0  0  0  0  0  0  0  0  0  0
   10.5750   -0.8999   23.7081 C   0  0  0  0  0  0  0  0  0  0  0  0
    5.6230    0.7892   25.0642 C   0  0  0  0  0  0  0  0  0  0  0  0
   14.1109   -1.8209   20.5930 N   0  0  0  0  0  0  0  0  0  0  0  0
    6.4780    0.9022   23.8372 N   0  0  0  0  0  0  0  0  0  0  0  0
    3.6170    1.0222   23.6913 O   0  0  0  0  0  0  0  0  0  0  0  0
    8.1657   -0.1560   25.3860 H   0  0  0  0  0  0  0  0  0  0  0  0
   10.1040    2.0606   25.2636 H   0  0  0  0  0  0  0  0  0  0  0  0
   10.2184    0.5830   26.2786 H   0  0  0  0  0  0  0  0  0  0  0  0
    4.2273   -0.7727   24.4930 H   0  0  0  0  0  0  0  0  0  0  0  0
    3.5675    0.4230   25.6599 H   0  0  0  0  0  0  0  0  0  0  0  0
    3.8390    1.5709   21.7176 H   0  0  0  0  0  0  0  0  0  0  0  0
    4.4688   -0.0537   22.1543 H   0  0  0  0  0  0  0  0  0  0  0  0
    6.3507    1.5078   21.8127 H   0  0  0  0  0  0  0  0  0  0  0  0
    5.6430    2.6572   22.9979 H   0  0  0  0  0  0  0  0  0  0  0  0
   12.3051    1.9635   24.3121 H   0  0  0  0  0  0  0  0  0  0  0  0
   13.8186    0.9262   22.6471 H   0  0  0  0  0  0  0  0  0  0  0  0
   11.1641   -2.4372   22.3295 H   0  0  0  0  0  0  0  0  0  0  0  0
    9.6744   -1.4107   24.0151 H   0  0  0  0  0  0  0  0  0  0  0  0
    5.5579    1.7799   25.5378 H   0  0  0  0  0  0  0  0  0  0  0  0
    6.0992    0.0814   25.7586 H   0  0  0  0  0  0  0  0  0  0  0  0
  1  2  1  0  0  0  0
  1  4  1  0  0  0  0
  1 19  1  0  0  0  0
  2  3  2  0  0  0  0
  2 17  1  0  0  0  0
  4  8  1  0  0  0  0
  4 20  1  0  0  0  0
  4 21  1  0  0  0  0
  5 15  1  0  0  0  0
  5 18  1  0  0  0  0
  5 22  1  0  0  0  0
  5 23  1  0  0  0  0
  6  7  1  0  0  0  0
  6 18  1  0  0  0  0
  6 24  1  0  0  0  0
  6 25  1  0  0  0  0
  7 17  1  0  0  0  0
  7 26  1  0  0  0  0
  7 27  1  0  0  0  0
  8  9  2  0  0  0  0
  8 14  1  0  0  0  0
  9 10  1  0  0  0  0
  9 28  1  0  0  0  0
 10 11  2  0  0  0  0
 10 29  1  0  0  0  0
 11 12  1  0  0  0  0
 11 13  1  0  0  0  0
 12 16  3  0  0  0  0
 13 14  2  0  0  0  0
 13 30  1  0  0  0  0
 14 31  1  0  0  0  0
 15 17  1  0  0  0  0
 15 32  1  0  0  0  0
 15 33  1  0  0  0  0
M  END
> <compound_name>
AAR-POS-d2a4d1df-21

> <provenance>
{"isomeric_smiles": "c1cc(ccc1CNC(=O)N2CCOCC2)C#N", "inchi": "InChI=1S/C13H15N3O2/c14-9-11-1-3-12(4-2-11)10-15-13(17)16-5-7-18-8-6-16/h1-4H,5-8,10H2,(H,15,17)", "inchi_key": "ZXWAHHRBFVCEAR-UHFFFAOYSA-N", "fixed_inchi": "InChI=1/C13H15N3O2/c14-9-11-1-3-12(4-2-11)10-15-13(17)16-5-7-18-8-6-16/h1-4H,5-8,10H2,(H,15,17)/f/h15H", "fixed_inchikey": "ZXWAHHRBFVCEAR-YAQRNVERNA-N"}

> <data_format>
sdf

$$$$
