LIG(A-306)
  -OEChem-06042511373D

 45 47  0     1  0  0  0  0  0999 V2000
   13.8485   -1.7235   22.0690 Cl  0  0  0  0  0  0  0  0  0  0  0  0
   12.4069   -0.9078   22.5800 C   0  0  0  0  0  0  0  0  0  0  0  0
   12.4737    0.1866   23.4261 C   0  0  0  0  0  0  0  0  0  0  0  0
   13.9950    0.9094   23.8254 Cl  0  0  0  0  0  0  0  0  0  0  0  0
   11.3091    0.7424   23.9293 C   0  0  0  0  0  0  0  0  0  0  0  0
   10.0848    0.2187   23.5583 C   0  0  0  0  0  0  0  0  0  0  0  0
   11.1786   -1.4105   22.1890 C   0  0  0  0  0  0  0  0  0  0  0  0
   10.0020   -0.8448   22.6692 C   0  0  0  0  0  0  0  0  0  0  0  0
    8.6636   -1.3527   22.1933 C   0  0  1  0  0  0  0  0  0  0  0  0
    7.9107   -1.8459   23.3049 O   0  0  0  0  0  0  0  0  0  0  0  0
    8.0110   -3.2626   23.4831 C   0  0  0  0  0  0  0  0  0  0  0  0
    6.9433   -3.9630   22.6963 C   0  0  0  0  0  0  0  0  0  0  0  0
    6.8556   -5.3666   22.9178 O   0  0  0  0  0  0  0  0  0  0  0  0
    5.7520   -5.9389   22.2278 C   0  0  0  0  0  0  0  0  0  0  0  0
    7.9447   -0.3142   21.3253 C   0  0  0  0  0  0  0  0  0  0  0  0
    8.0948    0.8881   21.5281 O   0  0  0  0  0  0  0  0  0  0  0  0
    7.3137   -0.8170   20.2487 N   0  0  0  0  0  0  0  0  0  0  0  0
    6.3748   -0.2386   19.3757 C   0  0  0  0  0  0  0  0  0  0  0  0
    5.4262    0.7441   19.8139 C   0  0  0  0  0  0  0  0  0  0  0  0
    4.9984    0.8903   21.1601 C   0  0  0  0  0  0  0  0  0  0  0  0
    3.9897    1.7518   21.4916 C   0  0  0  0  0  0  0  0  0  0  0  0
    3.3567    2.5051   20.5190 C   0  0  0  0  0  0  0  0  0  0  0  0
    3.7335    2.4080   19.2118 C   0  0  0  0  0  0  0  0  0  0  0  0
    4.7741    1.5274   18.8223 C   0  0  0  0  0  0  0  0  0  0  0  0
    5.1289    1.3062   17.4733 C   0  0  0  0  0  0  0  0  0  0  0  0
    5.9915    0.3936   17.0690 N   0  0  0  0  0  0  0  0  0  0  0  0
    6.5735   -0.3618   18.0047 C   0  0  0  0  0  0  0  0  0  0  0  0
   11.3573    1.5809   24.6083 H   0  0  0  0  0  0  0  0  0  0  0  0
    9.1792    0.6429   23.9661 H   0  0  0  0  0  0  0  0  0  0  0  0
   11.1331   -2.2469   21.5071 H   0  0  0  0  0  0  0  0  0  0  0  0
    8.8731   -2.2085   21.5348 H   0  0  0  0  0  0  0  0  0  0  0  0
    8.9984   -3.6028   23.1379 H   0  0  0  0  0  0  0  0  0  0  0  0
    7.8926   -3.5034   24.5500 H   0  0  0  0  0  0  0  0  0  0  0  0
    5.9744   -3.5145   22.9614 H   0  0  0  0  0  0  0  0  0  0  0  0
    7.1434   -3.7981   21.6274 H   0  0  0  0  0  0  0  0  0  0  0  0
    5.7180   -7.0209   22.4230 H   0  0  0  0  0  0  0  0  0  0  0  0
    4.8191   -5.4736   22.5787 H   0  0  0  0  0  0  0  0  0  0  0  0
    5.8648   -5.7647   21.1476 H   0  0  0  0  0  0  0  0  0  0  0  0
    7.5531   -1.7636   20.0323 H   0  0  0  0  0  0  0  0  0  0  0  0
    5.4781    0.3111   21.9353 H   0  0  0  0  0  0  0  0  0  0  0  0
    3.6840    1.8451   22.5233 H   0  0  0  0  0  0  0  0  0  0  0  0
    2.5573    3.1759   20.7972 H   0  0  0  0  0  0  0  0  0  0  0  0
    3.2339    3.0080   18.4657 H   0  0  0  0  0  0  0  0  0  0  0  0
    4.6624    1.9260   16.7219 H   0  0  0  0  0  0  0  0  0  0  0  0
    7.2536   -1.1309   17.6692 H   0  0  0  0  0  0  0  0  0  0  0  0
  1  2  1  0  0  0  0
  2  3  2  0  0  0  0
  2  7  1  0  0  0  0
  3  4  1  0  0  0  0
  3  5  1  0  0  0  0
  5  6  2  0  0  0  0
  5 28  1  0  0  0  0
  6  8  1  0  0  0  0
  6 29  1  0  0  0  0
  7  8  2  0  0  0  0
  7 30  1  0  0  0  0
  8  9  1  0  0  0  0
  9 10  1  0  0  0  0
  9 15  1  0  0  0  0
  9 31  1  0  0  0  0
 10 11  1  0  0  0  0
 11 12  1  0  0  0  0
 11 32  1  0  0  0  0
 11 33  1  0  0  0  0
 12 13  1  0  0  0  0
 12 34  1  0  0  0  0
 12 35  1  0  0  0  0
 13 14  1  0  0  0  0
 14 36  1  0  0  0  0
 14 37  1  0  0  0  0
 14 38  1  0  0  0  0
 15 16  2  0  0  0  0
 15 17  1  0  0  0  0
 17 18  1  0  0  0  0
 17 39  1  0  0  0  0
 18 19  2  0  0  0  0
 18 27  1  0  0  0  0
 19 20  1  0  0  0  0
 19 24  1  0  0  0  0
 20 21  2  0  0  0  0
 20 40  1  0  0  0  0
 21 22  1  0  0  0  0
 21 41  1  0  0  0  0
 22 23  2  0  0  0  0
 22 42  1  0  0  0  0
 23 24  1  0  0  0  0
 23 43  1  0  0  0  0
 24 25  2  0  0  0  0
 25 26  1  0  0  0  0
 25 44  1  0  0  0  0
 26 27  2  0  0  0  0
 27 45  1  0  0  0  0
M  END
> <compound_name>
MAT-POS-de59a476-4

> <provenance>
{"isomeric_smiles": "COCCO[C@H](c1ccc(c(c1)Cl)Cl)C(=O)Nc2cncc3c2cccc3", "inchi": "InChI=1S/C20H18Cl2N2O3/c1-26-8-9-27-19(13-6-7-16(21)17(22)10-13)20(25)24-18-12-23-11-14-4-2-3-5-15(14)18/h2-7,10-12,19H,8-9H2,1H3,(H,24,25)/t19-/m1/s1", "inchi_key": "NBMMVUFIILVGST-LJQANCHMSA-N", "fixed_inchi": "InChI=1/C20H18Cl2N2O3/c1-26-8-9-27-19(13-6-7-16(21)17(22)10-13)20(25)24-18-12-23-11-14-4-2-3-5-15(14)18/h2-7,10-12,19H,8-9H2,1H3,(H,24,25)/t19-/m1/s1/f/h24H", "fixed_inchikey": "NBMMVUFIILVGST-KITPJTELNA-N"}

> <data_format>
sdf

$$$$
