LIG(A-306)
  -OEChem-06042511433D

 47 50  0     1  0  0  0  0  0999 V2000
    9.7180    1.1475   21.0599 O   0  0  0  0  0  0  0  0  0  0  0  0
    9.2081    0.2206   21.6734 C   0  0  0  0  0  0  0  0  0  0  0  0
    9.9520   -0.4460   22.8629 C   0  0  1  0  0  0  0  0  0  0  0  0
   11.4537   -0.1364   22.8680 C   0  0  0  0  0  0  0  0  0  0  0  0
   12.2668   -0.8458   21.9832 C   0  0  0  0  0  0  0  0  0  0  0  0
   13.5876   -0.4759   21.8146 C   0  0  0  0  0  0  0  0  0  0  0  0
   14.5414   -1.2920   20.6012 Cl  0  0  0  0  0  0  0  0  0  0  0  0
   14.1551    0.5573   22.5376 C   0  0  0  0  0  0  0  0  0  0  0  0
   13.3790    1.2475   23.4542 C   0  0  0  0  0  0  0  0  0  0  0  0
   12.0432    0.9026   23.6129 C   0  0  0  0  0  0  0  0  0  0  0  0
   11.1056    1.7938   24.7987 S   0  0  0  0  0  0  0  0  0  0  0  0
   11.3917    3.1908   24.6805 O   0  0  0  0  0  0  0  0  0  0  0  0
   11.2466    1.1631   26.0785 O   0  0  0  0  0  0  0  0  0  0  0  0
    9.5789    1.5468   24.2879 N   0  0  0  0  0  0  0  0  0  0  0  0
    9.2467    0.1253   24.1180 C   0  0  0  0  0  0  0  0  0  0  0  0
    9.7636   -1.9775   22.8473 C   0  0  0  0  0  0  0  0  0  0  0  0
    7.9909   -0.2802   21.3583 N   0  0  0  0  0  0  0  0  0  0  0  0
    7.1695    0.1520   20.2837 C   0  0  0  0  0  0  0  0  0  0  0  0
    5.9902    0.9008   20.4488 C   0  0  0  0  0  0  0  0  0  0  0  0
    5.5797    1.3799   21.8253 C   0  0  0  0  0  0  0  0  0  0  0  0
    4.1851    1.9917   21.8828 C   0  0  0  0  0  0  0  0  0  0  0  0
    3.8856    2.8574   20.6742 C   0  0  0  0  0  0  0  0  0  0  0  0
    3.9784    2.0445   19.4021 C   0  0  0  0  0  0  0  0  0  0  0  0
    5.2576    1.2511   19.3027 C   0  0  0  0  0  0  0  0  0  0  0  0
    5.7523    0.8572   18.0726 C   0  0  0  0  0  0  0  0  0  0  0  0
    6.8838    0.1705   17.8968 N   0  0  0  0  0  0  0  0  0  0  0  0
    7.5713   -0.1805   18.9909 C   0  0  0  0  0  0  0  0  0  0  0  0
   11.8647   -1.6824   21.4311 H   0  0  0  0  0  0  0  0  0  0  0  0
   15.1914    0.8230   22.3893 H   0  0  0  0  0  0  0  0  0  0  0  0
   13.8088    2.0464   24.0401 H   0  0  0  0  0  0  0  0  0  0  0  0
    9.1744    2.2092   23.6573 H   0  0  0  0  0  0  0  0  0  0  0  0
    9.5777   -0.4332   25.0059 H   0  0  0  0  0  0  0  0  0  0  0  0
    8.1580    0.0185   24.0024 H   0  0  0  0  0  0  0  0  0  0  0  0
   10.2998   -2.4222   23.6987 H   0  0  0  0  0  0  0  0  0  0  0  0
    8.6925   -2.2158   22.9240 H   0  0  0  0  0  0  0  0  0  0  0  0
   10.1640   -2.3866   21.9079 H   0  0  0  0  0  0  0  0  0  0  0  0
    7.6391   -1.0194   21.9326 H   0  0  0  0  0  0  0  0  0  0  0  0
    5.6085    0.5213   22.5123 H   0  0  0  0  0  0  0  0  0  0  0  0
    6.3035    2.1390   22.1566 H   0  0  0  0  0  0  0  0  0  0  0  0
    3.4443    1.1798   21.9286 H   0  0  0  0  0  0  0  0  0  0  0  0
    4.1074    2.6104   22.7890 H   0  0  0  0  0  0  0  0  0  0  0  0
    2.8698    3.2692   20.7669 H   0  0  0  0  0  0  0  0  0  0  0  0
    4.6127    3.6816   20.6305 H   0  0  0  0  0  0  0  0  0  0  0  0
    3.1291    1.3461   19.3694 H   0  0  0  0  0  0  0  0  0  0  0  0
    3.9230    2.7296   18.5433 H   0  0  0  0  0  0  0  0  0  0  0  0
    5.1841    1.1234   17.1936 H   0  0  0  0  0  0  0  0  0  0  0  0
    8.4812   -0.7486   18.8657 H   0  0  0  0  0  0  0  0  0  0  0  0
  1  2  2  0  0  0  0
  2  3  1  0  0  0  0
  2 17  1  0  0  0  0
  3  4  1  0  0  0  0
  3 15  1  0  0  0  0
  3 16  1  0  0  0  0
  4  5  2  0  0  0  0
  4 10  1  0  0  0  0
  5  6  1  0  0  0  0
  5 28  1  0  0  0  0
  6  7  1  0  0  0  0
  6  8  2  0  0  0  0
  8  9  1  0  0  0  0
  8 29  1  0  0  0  0
  9 10  2  0  0  0  0
  9 30  1  0  0  0  0
 10 11  1  0  0  0  0
 11 12  2  0  0  0  0
 11 13  2  0  0  0  0
 11 14  1  0  0  0  0
 14 15  1  0  0  0  0
 14 31  1  0  0  0  0
 15 32  1  0  0  0  0
 15 33  1  0  0  0  0
 16 34  1  0  0  0  0
 16 35  1  0  0  0  0
 16 36  1  0  0  0  0
 17 18  1  0  0  0  0
 17 37  1  0  0  0  0
 18 19  2  0  0  0  0
 18 27  1  0  0  0  0
 19 20  1  0  0  0  0
 19 24  1  0  0  0  0
 20 21  1  0  0  0  0
 20 38  1  0  0  0  0
 20 39  1  0  0  0  0
 21 22  1  0  0  0  0
 21 40  1  0  0  0  0
 21 41  1  0  0  0  0
 22 23  1  0  0  0  0
 22 42  1  0  0  0  0
 22 43  1  0  0  0  0
 23 24  1  0  0  0  0
 23 44  1  0  0  0  0
 23 45  1  0  0  0  0
 24 25  2  0  0  0  0
 25 26  1  0  0  0  0
 25 46  1  0  0  0  0
 26 27  2  0  0  0  0
 27 47  1  0  0  0  0
M  END
> <compound_name>
MIK-ENA-5d9157e9-5

> <provenance>
{"isomeric_smiles": "C[C@]1(CNS(=O)(=O)c2c1cc(cc2)Cl)C(=O)Nc3cncc4c3CCCC4", "inchi": "InChI=1S/C19H20ClN3O3S/c1-19(11-22-27(25,26)17-7-6-13(20)8-15(17)19)18(24)23-16-10-21-9-12-4-2-3-5-14(12)16/h6-10,22H,2-5,11H2,1H3,(H,23,24)/t19-/m1/s1", "inchi_key": "OLOUVJHSJAVGMH-LJQANCHMSA-N", "fixed_inchi": "InChI=1/C19H20ClN3O3S/c1-19(11-22-27(25,26)17-7-6-13(20)8-15(17)19)18(24)23-16-10-21-9-12-4-2-3-5-14(12)16/h6-10,22H,2-5,11H2,1H3,(H,23,24)/t19-/m1/s1/f/h23H", "fixed_inchikey": "OLOUVJHSJAVGMH-ZRLIBOMZNA-N"}

> <data_format>
sdf

$$$$
