LIG(A-306)
  -OEChem-06042511383D

 34 36  0     0  0  0  0  0  0999 V2000
    9.2928    0.9650   21.1767 O   0  0  0  0  0  0  0  0  0  0  0  0
    8.7727   -0.1006   21.5125 C   0  0  0  0  0  0  0  0  0  0  0  0
    7.6316   -0.5886   20.9641 N   0  0  0  0  0  0  0  0  0  0  0  0
    6.8966   -0.0597   19.8808 C   0  0  0  0  0  0  0  0  0  0  0  0
    5.7462    0.7463   20.1560 C   0  0  0  0  0  0  0  0  0  0  0  0
    5.2448    0.9888   21.4623 C   0  0  0  0  0  0  0  0  0  0  0  0
    4.1394    1.7680   21.6573 C   0  0  0  0  0  0  0  0  0  0  0  0
    3.4855    2.3527   20.5813 C   0  0  0  0  0  0  0  0  0  0  0  0
    3.9249    2.1462   19.3042 C   0  0  0  0  0  0  0  0  0  0  0  0
    5.0583    1.3302   19.0540 C   0  0  0  0  0  0  0  0  0  0  0  0
    5.5425    1.0497   17.7505 C   0  0  0  0  0  0  0  0  0  0  0  0
    6.5980    0.2899   17.4956 N   0  0  0  0  0  0  0  0  0  0  0  0
    7.2500   -0.2387   18.5429 C   0  0  0  0  0  0  0  0  0  0  0  0
    9.3840   -0.9812   22.5850 C   0  0  0  0  0  0  0  0  0  0  0  0
   10.8268   -0.6315   22.8666 C   0  0  0  0  0  0  0  0  0  0  0  0
   11.1528    0.3140   23.8333 C   0  0  0  0  0  0  0  0  0  0  0  0
   12.4617    0.7546   23.9824 C   0  0  0  0  0  0  0  0  0  0  0  0
   13.4606    0.2446   23.1757 C   0  0  0  0  0  0  0  0  0  0  0  0
   13.1565   -0.7241   22.2369 C   0  0  0  0  0  0  0  0  0  0  0  0
   11.8496   -1.1677   22.0938 C   0  0  0  0  0  0  0  0  0  0  0  0
    7.2673   -1.4234   21.3769 H   0  0  0  0  0  0  0  0  0  0  0  0
    5.7444    0.5510   22.3139 H   0  0  0  0  0  0  0  0  0  0  0  0
    3.7706    1.9308   22.6592 H   0  0  0  0  0  0  0  0  0  0  0  0
    2.6213    2.9767   20.7553 H   0  0  0  0  0  0  0  0  0  0  0  0
    3.4051    2.6082   18.4779 H   0  0  0  0  0  0  0  0  0  0  0  0
    5.0175    1.4832   16.9121 H   0  0  0  0  0  0  0  0  0  0  0  0
    8.1155   -0.8500   18.3338 H   0  0  0  0  0  0  0  0  0  0  0  0
    8.8045   -0.8619   23.5123 H   0  0  0  0  0  0  0  0  0  0  0  0
    9.3331   -2.0287   22.2530 H   0  0  0  0  0  0  0  0  0  0  0  0
   10.3796    0.7099   24.4751 H   0  0  0  0  0  0  0  0  0  0  0  0
   12.6989    1.4970   24.7301 H   0  0  0  0  0  0  0  0  0  0  0  0
   14.4749    0.6011   23.2779 H   0  0  0  0  0  0  0  0  0  0  0  0
   13.9371   -1.1358   21.6143 H   0  0  0  0  0  0  0  0  0  0  0  0
   11.6244   -1.9396   21.3727 H   0  0  0  0  0  0  0  0  0  0  0  0
  1  2  2  0  0  0  0
  2  3  1  0  0  0  0
  2 14  1  0  0  0  0
  3  4  1  0  0  0  0
  3 21  1  0  0  0  0
  4  5  2  0  0  0  0
  4 13  1  0  0  0  0
  5  6  1  0  0  0  0
  5 10  1  0  0  0  0
  6  7  2  0  0  0  0
  6 22  1  0  0  0  0
  7  8  1  0  0  0  0
  7 23  1  0  0  0  0
  8  9  2  0  0  0  0
  8 24  1  0  0  0  0
  9 10  1  0  0  0  0
  9 25  1  0  0  0  0
 10 11  2  0  0  0  0
 11 12  1  0  0  0  0
 11 26  1  0  0  0  0
 12 13  2  0  0  0  0
 13 27  1  0  0  0  0
 14 15  1  0  0  0  0
 14 28  1  0  0  0  0
 14 29  1  0  0  0  0
 15 16  2  0  0  0  0
 15 20  1  0  0  0  0
 16 17  1  0  0  0  0
 16 30  1  0  0  0  0
 17 18  2  0  0  0  0
 17 31  1  0  0  0  0
 18 19  1  0  0  0  0
 18 32  1  0  0  0  0
 19 20  2  0  0  0  0
 19 33  1  0  0  0  0
 20 34  1  0  0  0  0
M  END
> <compound_name>
RAL-THA-2d450e86-1

> <provenance>
{"isomeric_smiles": "c1ccc(cc1)CC(=O)Nc2cncc3c2cccc3", "inchi": "InChI=1S/C17H14N2O/c20-17(10-13-6-2-1-3-7-13)19-16-12-18-11-14-8-4-5-9-15(14)16/h1-9,11-12H,10H2,(H,19,20)", "inchi_key": "IBEFUXAVGLACIF-UHFFFAOYSA-N", "fixed_inchi": "InChI=1/C17H14N2O/c20-17(10-13-6-2-1-3-7-13)19-16-12-18-11-14-8-4-5-9-15(14)16/h1-9,11-12H,10H2,(H,19,20)/f/h19H", "fixed_inchikey": "IBEFUXAVGLACIF-LILDFLRNNA-N"}

> <data_format>
sdf

$$$$
