LIG(A-306)
  -OEChem-06042511403D

 40 42  0     0  0  0  0  0  0999 V2000
    8.7448    0.8950   20.8155 O   0  0  0  0  0  0  0  0  0  0  0  0
    8.2829   -0.2210   21.0526 C   0  0  0  0  0  0  0  0  0  0  0  0
    8.9821   -1.2100   21.9644 C   0  0  0  0  0  0  0  0  0  0  0  0
   10.1972   -0.6410   22.6622 C   0  0  0  0  0  0  0  0  0  0  0  0
   11.4682   -1.1180   22.3600 C   0  0  0  0  0  0  0  0  0  0  0  0
   12.5633   -0.5600   22.9848 C   0  0  0  0  0  0  0  0  0  0  0  0
   14.1392   -1.2439   22.6935 Cl  0  0  0  0  0  0  0  0  0  0  0  0
   12.4354    0.4700   23.8979 C   0  0  0  0  0  0  0  0  0  0  0  0
   10.0604    0.3719   23.6063 C   0  0  0  0  0  0  0  0  0  0  0  0
   11.1675    0.9229   24.2451 C   0  0  0  0  0  0  0  0  0  0  0  0
   10.9826    1.8779   25.4112 C   0  0  0  0  0  0  0  0  0  0  0  0
   10.8285    3.3419   25.0703 C   0  0  0  0  0  0  0  0  0  0  0  0
    7.1258   -0.6760   20.5258 N   0  0  0  0  0  0  0  0  0  0  0  0
    6.3167   -0.0400   19.5689 C   0  0  0  0  0  0  0  0  0  0  0  0
    5.2697    0.8200   20.0242 C   0  0  0  0  0  0  0  0  0  0  0  0
    4.8559    0.9169   21.3782 C   0  0  0  0  0  0  0  0  0  0  0  0
    3.8480    1.7639   21.7465 C   0  0  0  0  0  0  0  0  0  0  0  0
    3.2058    2.5519   20.8016 C   0  0  0  0  0  0  0  0  0  0  0  0
    3.5656    2.4920   19.4866 C   0  0  0  0  0  0  0  0  0  0  0  0
    4.6035    1.6250   19.0603 C   0  0  0  0  0  0  0  0  0  0  0  0
    5.0103    1.5051   17.7102 C   0  0  0  0  0  0  0  0  0  0  0  0
    5.9642    0.6872   17.2870 N   0  0  0  0  0  0  0  0  0  0  0  0
    6.5854   -0.0639   18.2019 C   0  0  0  0  0  0  0  0  0  0  0  0
    8.2659   -1.5423   22.7303 H   0  0  0  0  0  0  0  0  0  0  0  0
    9.3006   -2.0730   21.3612 H   0  0  0  0  0  0  0  0  0  0  0  0
   11.5959   -1.9163   21.6440 H   0  0  0  0  0  0  0  0  0  0  0  0
   13.3134    0.9193   24.3380 H   0  0  0  0  0  0  0  0  0  0  0  0
    9.0738    0.7386   23.8486 H   0  0  0  0  0  0  0  0  0  0  0  0
   10.0806    1.5660   25.9579 H   0  0  0  0  0  0  0  0  0  0  0  0
   11.8609    1.7785   26.0660 H   0  0  0  0  0  0  0  0  0  0  0  0
   10.7030    3.9231   25.9958 H   0  0  0  0  0  0  0  0  0  0  0  0
   11.7254    3.6905   24.5374 H   0  0  0  0  0  0  0  0  0  0  0  0
    9.9450    3.4779   24.4293 H   0  0  0  0  0  0  0  0  0  0  0  0
    6.8090   -1.5660   20.8535 H   0  0  0  0  0  0  0  0  0  0  0  0
    5.3444    0.3129   22.1285 H   0  0  0  0  0  0  0  0  0  0  0  0
    3.5486    1.8203   22.7826 H   0  0  0  0  0  0  0  0  0  0  0  0
    2.4141    3.2186   21.1099 H   0  0  0  0  0  0  0  0  0  0  0  0
    3.0548    3.1108   18.7636 H   0  0  0  0  0  0  0  0  0  0  0  0
    4.5109    2.1202   16.9764 H   0  0  0  0  0  0  0  0  0  0  0  0
    7.3532   -0.7398   17.8555 H   0  0  0  0  0  0  0  0  0  0  0  0
  1  2  2  0  0  0  0
  2  3  1  0  0  0  0
  2 13  1  0  0  0  0
  3  4  1  0  0  0  0
  3 24  1  0  0  0  0
  3 25  1  0  0  0  0
  4  5  2  0  0  0  0
  4  9  1  0  0  0  0
  5  6  1  0  0  0  0
  5 26  1  0  0  0  0
  6  7  1  0  0  0  0
  6  8  2  0  0  0  0
  8 10  1  0  0  0  0
  8 27  1  0  0  0  0
  9 10  2  0  0  0  0
  9 28  1  0  0  0  0
 10 11  1  0  0  0  0
 11 12  1  0  0  0  0
 11 29  1  0  0  0  0
 11 30  1  0  0  0  0
 12 31  1  0  0  0  0
 12 32  1  0  0  0  0
 12 33  1  0  0  0  0
 13 14  1  0  0  0  0
 13 34  1  0  0  0  0
 14 15  2  0  0  0  0
 14 23  1  0  0  0  0
 15 16  1  0  0  0  0
 15 20  1  0  0  0  0
 16 17  2  0  0  0  0
 16 35  1  0  0  0  0
 17 18  1  0  0  0  0
 17 36  1  0  0  0  0
 18 19  2  0  0  0  0
 18 37  1  0  0  0  0
 19 20  1  0  0  0  0
 19 38  1  0  0  0  0
 20 21  2  0  0  0  0
 21 22  1  0  0  0  0
 21 39  1  0  0  0  0
 22 23  2  0  0  0  0
 23 40  1  0  0  0  0
M  END
> <compound_name>
PET-UNK-bb7ffe78-1

> <provenance>
{"isomeric_smiles": "CCc1cc(cc(c1)Cl)CC(=O)Nc2cncc3c2cccc3", "inchi": "InChI=1S/C19H17ClN2O/c1-2-13-7-14(9-16(20)8-13)10-19(23)22-18-12-21-11-15-5-3-4-6-17(15)18/h3-9,11-12H,2,10H2,1H3,(H,22,23)", "inchi_key": "AJZWQKNTPFPYEK-UHFFFAOYSA-N", "fixed_inchi": "InChI=1/C19H17ClN2O/c1-2-13-7-14(9-16(20)8-13)10-19(23)22-18-12-21-11-15-5-3-4-6-17(15)18/h3-9,11-12H,2,10H2,1H3,(H,22,23)/f/h22H", "fixed_inchikey": "AJZWQKNTPFPYEK-QWOVJGMINA-N"}

> <data_format>
sdf

$$$$
