LIG(A-305)
  -OEChem-06042511373D

 42 45  0     0  0  0  0  0  0999 V2000
    5.3171   -2.6489   20.8713 O   0  0  0  0  0  0  0  0  0  0  0  0
    5.8841   -1.5689   20.8603 C   0  0  0  0  0  0  0  0  0  0  0  0
    5.5801   -0.5680   19.7842 C   0  0  0  0  0  0  0  0  0  0  0  0
    4.6201    0.4660   19.9872 C   0  0  0  0  0  0  0  0  0  0  0  0
    3.9280    0.6881   21.2081 C   0  0  0  0  0  0  0  0  0  0  0  0
    2.9880    1.6721   21.3160 C   0  0  0  0  0  0  0  0  0  0  0  0
    2.6921    2.4870   20.2340 C   0  0  0  0  0  0  0  0  0  0  0  0
    3.3501    2.3360   19.0480 C   0  0  0  0  0  0  0  0  0  0  0  0
    4.3341    1.3260   18.8911 C   0  0  0  0  0  0  0  0  0  0  0  0
    5.0492    1.1169   17.6841 C   0  0  0  0  0  0  0  0  0  0  0  0
    5.9562    0.1579   17.5062 N   0  0  0  0  0  0  0  0  0  0  0  0
    6.1961   -0.6650   18.5363 C   0  0  0  0  0  0  0  0  0  0  0  0
    6.7690   -1.2099   21.8143 N   0  0  0  0  0  0  0  0  0  0  0  0
    7.3240   -2.1268   22.8124 C   0  0  0  0  0  0  0  0  0  0  0  0
    8.8370   -2.1978   22.6694 C   0  0  0  0  0  0  0  0  0  0  0  0
    7.3050    0.1441   21.9303 C   0  0  0  0  0  0  0  0  0  0  0  0
    8.8070    0.2081   21.9803 C   0  0  0  0  0  0  0  0  0  0  0  0
    9.3870    1.1751   21.5003 O   0  0  0  0  0  0  0  0  0  0  0  0
    9.4520   -0.8648   22.5274 N   0  0  0  0  0  0  0  0  0  0  0  0
   10.8270   -0.7998   22.8754 C   0  0  0  0  0  0  0  0  0  0  0  0
   11.7260   -1.5798   22.1595 C   0  0  0  0  0  0  0  0  0  0  0  0
   13.0750   -1.4058   22.3715 C   0  0  0  0  0  0  0  0  0  0  0  0
   14.1940   -2.2539   21.3506 Cl  0  0  0  0  0  0  0  0  0  0  0  0
   11.2859    0.1022   23.8354 C   0  0  0  0  0  0  0  0  0  0  0  0
   12.6499    0.2442   24.0445 C   0  0  0  0  0  0  0  0  0  0  0  0
   13.5560   -0.5078   23.3085 C   0  0  0  0  0  0  0  0  0  0  0  0
    4.1493    0.0684   22.0646 H   0  0  0  0  0  0  0  0  0  0  0  0
    2.4702    1.8171   22.2526 H   0  0  0  0  0  0  0  0  0  0  0  0
    1.9330    3.2491   20.3307 H   0  0  0  0  0  0  0  0  0  0  0  0
    3.1196    2.9914   18.2212 H   0  0  0  0  0  0  0  0  0  0  0  0
    4.8449    1.7785   16.8553 H   0  0  0  0  0  0  0  0  0  0  0  0
    6.9155   -1.4573   18.3903 H   0  0  0  0  0  0  0  0  0  0  0  0
    7.0698   -1.7658   23.8198 H   0  0  0  0  0  0  0  0  0  0  0  0
    6.8966   -3.1294   22.6635 H   0  0  0  0  0  0  0  0  0  0  0  0
    9.2537   -2.6856   23.5630 H   0  0  0  0  0  0  0  0  0  0  0  0
    9.0799   -2.7956   21.7786 H   0  0  0  0  0  0  0  0  0  0  0  0
    6.9632    0.7264   21.0618 H   0  0  0  0  0  0  0  0  0  0  0  0
    6.9092    0.5945   22.8525 H   0  0  0  0  0  0  0  0  0  0  0  0
   11.3723   -2.3112   21.4478 H   0  0  0  0  0  0  0  0  0  0  0  0
   10.5839    0.6862   24.4121 H   0  0  0  0  0  0  0  0  0  0  0  0
   13.0094    0.9442   24.7842 H   0  0  0  0  0  0  0  0  0  0  0  0
   14.6186   -0.3939   23.4647 H   0  0  0  0  0  0  0  0  0  0  0  0
  1  2  2  0  0  0  0
  2  3  1  0  0  0  0
  2 13  1  0  0  0  0
  3  4  2  0  0  0  0
  3 12  1  0  0  0  0
  4  5  1  0  0  0  0
  4  9  1  0  0  0  0
  5  6  2  0  0  0  0
  5 27  1  0  0  0  0
  6  7  1  0  0  0  0
  6 28  1  0  0  0  0
  7  8  2  0  0  0  0
  7 29  1  0  0  0  0
  8  9  1  0  0  0  0
  8 30  1  0  0  0  0
  9 10  2  0  0  0  0
 10 11  1  0  0  0  0
 10 31  1  0  0  0  0
 11 12  2  0  0  0  0
 12 32  1  0  0  0  0
 13 14  1  0  0  0  0
 13 16  1  0  0  0  0
 14 15  1  0  0  0  0
 14 33  1  0  0  0  0
 14 34  1  0  0  0  0
 15 19  1  0  0  0  0
 15 35  1  0  0  0  0
 15 36  1  0  0  0  0
 16 17  1  0  0  0  0
 16 37  1  0  0  0  0
 16 38  1  0  0  0  0
 17 18  2  0  0  0  0
 17 19  1  0  0  0  0
 19 20  1  0  0  0  0
 20 21  2  0  0  0  0
 20 24  1  0  0  0  0
 21 22  1  0  0  0  0
 21 39  1  0  0  0  0
 22 23  1  0  0  0  0
 22 26  2  0  0  0  0
 24 25  2  0  0  0  0
 24 40  1  0  0  0  0
 25 26  1  0  0  0  0
 25 41  1  0  0  0  0
 26 42  1  0  0  0  0
M  END
> <compound_name>
ERI-UCB-d6de1f3c-2

> <provenance>
{"isomeric_smiles": "c1ccc2c(c1)cncc2C(=O)N3CCN(C(=O)C3)c4cccc(c4)Cl", "inchi": "InChI=1S/C20H16ClN3O2/c21-15-5-3-6-16(10-15)24-9-8-23(13-19(24)25)20(26)18-12-22-11-14-4-1-2-7-17(14)18/h1-7,10-12H,8-9,13H2", "inchi_key": "OMBIOAUKLYASJI-UHFFFAOYSA-N", "fixed_inchi": "InChI=1/C20H16ClN3O2/c21-15-5-3-6-16(10-15)24-9-8-23(13-19(24)25)20(26)18-12-22-11-14-4-1-2-7-17(14)18/h1-7,10-12H,8-9,13H2", "fixed_inchikey": "OMBIOAUKLYASJI-UHFFFAOYNA-N"}

> <data_format>
sdf

$$$$
