LIG(A-306)
  -OEChem-06042511393D

 41 44  0     1  0  0  0  0  0999 V2000
    9.1893    0.9867   21.0598 O   0  0  0  0  0  0  0  0  0  0  0  0
    8.6208   -0.0276   21.4810 C   0  0  0  0  0  0  0  0  0  0  0  0
    9.1459   -0.8176   22.6808 C   0  0  2  0  0  0  0  0  0  0  0  0
    8.4000   -0.4125   23.9578 C   0  0  0  0  0  0  0  0  0  0  0  0
    8.6211    1.0090   24.2442 N   0  3  0  0  0  0  0  0  0  0  0  0
   10.0274    1.3086   24.5255 C   0  0  0  0  0  0  0  0  0  0  0  0
   10.6140   -0.4762   22.8159 C   0  0  0  0  0  0  0  0  0  0  0  0
   11.0207    0.5593   23.6718 C   0  0  0  0  0  0  0  0  0  0  0  0
   12.3787    0.8616   23.7711 C   0  0  0  0  0  0  0  0  0  0  0  0
   13.3211    0.1614   23.0384 C   0  0  0  0  0  0  0  0  0  0  0  0
   11.5684   -1.1843   22.0863 C   0  0  0  0  0  0  0  0  0  0  0  0
   12.8995   -0.8390   22.1915 C   0  0  0  0  0  0  0  0  0  0  0  0
   14.0556   -1.6167   21.1478 Cl  0  0  0  0  0  0  0  0  0  0  0  0
    7.4773   -0.5187   20.9418 N   0  0  0  0  0  0  0  0  0  0  0  0
    6.7503    0.0044   19.8536 C   0  0  0  0  0  0  0  0  0  0  0  0
    5.6395    0.8658   20.1211 C   0  0  0  0  0  0  0  0  0  0  0  0
    5.1466    1.1399   21.4231 C   0  0  0  0  0  0  0  0  0  0  0  0
    4.0897    1.9861   21.6116 C   0  0  0  0  0  0  0  0  0  0  0  0
    3.4717    2.5983   20.5292 C   0  0  0  0  0  0  0  0  0  0  0  0
    3.9085    2.3651   19.2552 C   0  0  0  0  0  0  0  0  0  0  0  0
    4.9994    1.4938   19.0157 C   0  0  0  0  0  0  0  0  0  0  0  0
    5.4943    1.2097   17.7187 C   0  0  0  0  0  0  0  0  0  0  0  0
    6.5151    0.4004   17.4711 N   0  0  0  0  0  0  0  0  0  0  0  0
    7.1151   -0.1788   18.5196 C   0  0  0  0  0  0  0  0  0  0  0  0
    9.0228   -1.8960   22.5023 H   0  0  0  0  0  0  0  0  0  0  0  0
    7.3233   -0.5927   23.8224 H   0  0  0  0  0  0  0  0  0  0  0  0
    8.7694   -1.0147   24.8009 H   0  0  0  0  0  0  0  0  0  0  0  0
    8.3305    1.5455   23.4519 H   0  0  0  0  0  0  0  0  0  0  0  0
    8.0725    1.2656   25.0400 H   0  0  0  0  0  0  0  0  0  0  0  0
   10.1853    2.3857   24.3674 H   0  0  0  0  0  0  0  0  0  0  0  0
   10.2256    1.0596   25.5784 H   0  0  0  0  0  0  0  0  0  0  0  0
   12.6998    1.6546   24.4302 H   0  0  0  0  0  0  0  0  0  0  0  0
   14.3714    0.3962   23.1296 H   0  0  0  0  0  0  0  0  0  0  0  0
   11.2672   -1.9979   21.4430 H   0  0  0  0  0  0  0  0  0  0  0  0
    7.1079   -1.3462   21.3646 H   0  0  0  0  0  0  0  0  0  0  0  0
    5.6134    0.6731   22.2779 H   0  0  0  0  0  0  0  0  0  0  0  0
    3.7320    2.1805   22.6119 H   0  0  0  0  0  0  0  0  0  0  0  0
    2.6381    3.2647   20.6955 H   0  0  0  0  0  0  0  0  0  0  0  0
    3.4177    2.8495   18.4239 H   0  0  0  0  0  0  0  0  0  0  0  0
    5.0089    1.6826   16.8778 H   0  0  0  0  0  0  0  0  0  0  0  0
    7.9456   -0.8386   18.3163 H   0  0  0  0  0  0  0  0  0  0  0  0
  1  2  2  0  0  0  0
  2  3  1  0  0  0  0
  2 14  1  0  0  0  0
  3  4  1  0  0  0  0
  3  7  1  0  0  0  0
  3 25  1  0  0  0  0
  4  5  1  0  0  0  0
  4 26  1  0  0  0  0
  4 27  1  0  0  0  0
  5  6  1  0  0  0  0
  5 28  1  0  0  0  0
  5 29  1  0  0  0  0
  6  8  1  0  0  0  0
  6 30  1  0  0  0  0
  6 31  1  0  0  0  0
  7  8  2  0  0  0  0
  7 11  1  0  0  0  0
  8  9  1  0  0  0  0
  9 10  2  0  0  0  0
  9 32  1  0  0  0  0
 10 12  1  0  0  0  0
 10 33  1  0  0  0  0
 11 12  2  0  0  0  0
 11 34  1  0  0  0  0
 12 13  1  0  0  0  0
 14 15  1  0  0  0  0
 14 35  1  0  0  0  0
 15 16  2  0  0  0  0
 15 24  1  0  0  0  0
 16 17  1  0  0  0  0
 16 21  1  0  0  0  0
 17 18  2  0  0  0  0
 17 36  1  0  0  0  0
 18 19  1  0  0  0  0
 18 37  1  0  0  0  0
 19 20  2  0  0  0  0
 19 38  1  0  0  0  0
 20 21  1  0  0  0  0
 20 39  1  0  0  0  0
 21 22  2  0  0  0  0
 22 23  1  0  0  0  0
 22 40  1  0  0  0  0
 23 24  2  0  0  0  0
 24 41  1  0  0  0  0
M  CHG  1   5   1
M  END
> <compound_name>
BEN-DND-f2e727cd-5

> <provenance>
{"isomeric_smiles": "c1ccc2c(c1)cncc2NC(=O)[C@@H]3C[NH2+]Cc4c3cc(cc4)Cl", "inchi": "InChI=1S/C19H16ClN3O/c20-14-6-5-13-9-21-10-17(16(13)7-14)19(24)23-18-11-22-8-12-3-1-2-4-15(12)18/h1-8,11,17,21H,9-10H2,(H,23,24)/p+1/t17-/m1/s1", "inchi_key": "SYSIIGBRVBHDHN-QGZVFWFLSA-O", "fixed_inchi": "InChI=1/C19H16ClN3O/c20-14-6-5-13-9-21-10-17(16(13)7-14)19(24)23-18-11-22-8-12-3-1-2-4-15(12)18/h1-8,11,17,21H,9-10H2,(H,23,24)/p+1/t17-/m1/s1/fC19H17ClN3O/h21,23H/q+1", "fixed_inchikey": "SYSIIGBRVBHDHN-MBZQGUPJNA-O"}

> <data_format>
sdf

$$$$
