LIG(A-305)
  -OEChem-06042511343D

 36 37  0     1  0  0  0  0  0999 V2000
   13.9300   -1.6589   21.2303 Cl  0  0  0  0  0  0  0  0  0  0  0  0
   12.8081   -0.7849   22.2285 C   0  0  0  0  0  0  0  0  0  0  0  0
   13.2872    0.1330   23.1365 C   0  0  0  0  0  0  0  0  0  0  0  0
   12.3923    0.7360   24.0076 C   0  0  0  0  0  0  0  0  0  0  0  0
   11.0393    0.4441   23.9307 C   0  0  0  0  0  0  0  0  0  0  0  0
   11.4621   -1.0748   22.1296 C   0  0  0  0  0  0  0  0  0  0  0  0
   10.5572   -0.4368   22.9717 C   0  0  0  0  0  0  0  0  0  0  0  0
    9.0671   -0.5956   22.7298 C   0  0  2  0  0  0  0  0  0  0  0  0
    8.6280   -2.0676   22.7037 C   0  0  0  0  0  0  0  0  0  0  0  0
    8.6971   -2.7217   24.0666 C   0  0  0  0  0  0  0  0  0  0  0  0
    8.6901    0.1945   21.4718 C   0  0  0  0  0  0  0  0  0  0  0  0
    9.1762    1.2955   21.2319 O   0  0  0  0  0  0  0  0  0  0  0  0
    7.8130   -0.4084   20.6378 N   0  0  0  0  0  0  0  0  0  0  0  0
    6.7260   -0.0092   19.8380 C   0  0  0  0  0  0  0  0  0  0  0  0
    5.7121    0.8568   20.3031 C   0  0  0  0  0  0  0  0  0  0  0  0
    5.3612    0.9707   21.7651 C   0  0  0  0  0  0  0  0  0  0  0  0
    4.9621    1.5299   19.3442 C   0  0  0  0  0  0  0  0  0  0  0  0
    5.1680    1.3860   18.0292 N   0  0  0  0  0  0  0  0  0  0  0  0
    6.1429    0.5380   17.5870 N   0  0  0  0  0  0  0  0  0  0  0  0
    6.8599   -0.1371   18.4589 C   0  0  0  0  0  0  0  0  0  0  0  0
   14.3384    0.3782   23.1696 H   0  0  0  0  0  0  0  0  0  0  0  0
   12.7507    1.4354   24.7485 H   0  0  0  0  0  0  0  0  0  0  0  0
   10.3528    0.9068   24.6242 H   0  0  0  0  0  0  0  0  0  0  0  0
   11.1135   -1.7930   21.4022 H   0  0  0  0  0  0  0  0  0  0  0  0
    8.5482   -0.1209   23.5755 H   0  0  0  0  0  0  0  0  0  0  0  0
    7.5909   -2.1191   22.3407 H   0  0  0  0  0  0  0  0  0  0  0  0
    9.2853   -2.6188   22.0151 H   0  0  0  0  0  0  0  0  0  0  0  0
    8.3728   -3.7699   23.9877 H   0  0  0  0  0  0  0  0  0  0  0  0
    9.7316   -2.6851   24.4387 H   0  0  0  0  0  0  0  0  0  0  0  0
    8.0371   -2.1854   24.7644 H   0  0  0  0  0  0  0  0  0  0  0  0
    7.9798   -1.3922   20.5726 H   0  0  0  0  0  0  0  0  0  0  0  0
    6.2442    1.3047   22.3297 H   0  0  0  0  0  0  0  0  0  0  0  0
    4.5479    1.7006   21.8911 H   0  0  0  0  0  0  0  0  0  0  0  0
    5.0352   -0.0102   22.1413 H   0  0  0  0  0  0  0  0  0  0  0  0
    4.1800    2.1974   19.6748 H   0  0  0  0  0  0  0  0  0  0  0  0
    7.5960   -0.8318   18.0822 H   0  0  0  0  0  0  0  0  0  0  0  0
  1  2  1  0  0  0  0
  2  3  2  0  0  0  0
  2  6  1  0  0  0  0
  3  4  1  0  0  0  0
  3 21  1  0  0  0  0
  4  5  2  0  0  0  0
  4 22  1  0  0  0  0
  5  7  1  0  0  0  0
  5 23  1  0  0  0  0
  6  7  2  0  0  0  0
  6 24  1  0  0  0  0
  7  8  1  0  0  0  0
  8  9  1  0  0  0  0
  8 11  1  0  0  0  0
  8 25  1  0  0  0  0
  9 10  1  0  0  0  0
  9 26  1  0  0  0  0
  9 27  1  0  0  0  0
 10 28  1  0  0  0  0
 10 29  1  0  0  0  0
 10 30  1  0  0  0  0
 11 12  2  0  0  0  0
 11 13  1  0  0  0  0
 13 14  1  0  0  0  0
 13 31  1  0  0  0  0
 14 15  2  0  0  0  0
 14 20  1  0  0  0  0
 15 16  1  0  0  0  0
 15 17  1  0  0  0  0
 16 32  1  0  0  0  0
 16 33  1  0  0  0  0
 16 34  1  0  0  0  0
 17 18  2  0  0  0  0
 17 35  1  0  0  0  0
 18 19  1  0  0  0  0
 19 20  2  0  0  0  0
 20 36  1  0  0  0  0
M  END
> <compound_name>
JAN-GHE-83b26c96-1

> <provenance>
{"isomeric_smiles": "CC[C@@H](c1cccc(c1)Cl)C(=O)Nc2cnncc2C", "inchi": "InChI=1S/C15H16ClN3O/c1-3-13(11-5-4-6-12(16)7-11)15(20)19-14-9-18-17-8-10(14)2/h4-9,13H,3H2,1-2H3,(H,17,19,20)/t13-/m0/s1", "inchi_key": "AATSBPIJUYIMKX-ZDUSSCGKSA-N", "fixed_inchi": "InChI=1/C15H16ClN3O/c1-3-13(11-5-4-6-12(16)7-11)15(20)19-14-9-18-17-8-10(14)2/h4-9,13H,3H2,1-2H3,(H,17,19,20)/t13-/m0/s1/f/h19H", "fixed_inchikey": "AATSBPIJUYIMKX-VKDSSWMGNA-N"}

> <data_format>
sdf

$$$$
