LIG(A-306)
  -OEChem-06042511403D

 57 61  0     0  0  0  0  0  0999 V2000
   13.8035    7.8115   22.8171 O   0  0  0  0  0  0  0  0  0  0  0  0
   13.0527    7.1764   23.5542 C   0  0  0  0  0  0  0  0  0  0  0  0
   12.1606    7.9842   24.4303 C   0  0  0  0  0  0  0  0  0  0  0  0
   10.8257    7.6860   24.4714 O   0  0  0  0  0  0  0  0  0  0  0  0
   10.2426    8.6429   25.2695 C   0  0  0  0  0  0  0  0  0  0  0  0
   11.1565    9.5020   25.7124 C   0  0  0  0  0  0  0  0  0  0  0  0
   12.4095    9.0852   25.1773 C   0  0  0  0  0  0  0  0  0  0  0  0
   13.0359    5.8314   23.5791 N   0  0  0  0  0  0  0  0  0  0  0  0
   13.7339    5.0805   22.5230 C   0  0  0  0  0  0  0  0  0  0  0  0
   12.9331    3.8634   22.1080 C   0  0  0  0  0  0  0  0  0  0  0  0
   12.4981    5.0383   24.6981 C   0  0  0  0  0  0  0  0  0  0  0  0
   11.7733    3.7992   24.1901 C   0  0  0  0  0  0  0  0  0  0  0  0
   12.6383    3.0433   23.2830 N   0  0  0  0  0  0  0  0  0  0  0  0
   12.3305    1.7053   23.0320 C   0  0  0  0  0  0  0  0  0  0  0  0
   13.3416    0.7915   22.7149 C   0  0  0  0  0  0  0  0  0  0  0  0
   12.9978   -0.4886   22.3228 C   0  0  0  0  0  0  0  0  0  0  0  0
   14.2559   -1.5813   21.8217 Cl  0  0  0  0  0  0  0  0  0  0  0  0
   10.9966    1.2811   22.9891 C   0  0  0  0  0  0  0  0  0  0  0  0
   10.6707   -0.0120   22.5821 C   0  0  0  0  0  0  0  0  0  0  0  0
   11.6849   -0.9038   22.2529 C   0  0  0  0  0  0  0  0  0  0  0  0
    9.2228   -0.4332   22.4642 C   0  0  0  0  0  0  0  0  0  0  0  0
    8.5096    0.2808   21.3313 C   0  0  0  0  0  0  0  0  0  0  0  0
    8.7684    1.4448   21.0343 O   0  0  0  0  0  0  0  0  0  0  0  0
    7.6856   -0.4853   20.6033 N   0  0  0  0  0  0  0  0  0  0  0  0
    6.6285   -0.1185   19.7554 C   0  0  0  0  0  0  0  0  0  0  0  0
    5.6274    0.8213   20.1646 C   0  0  0  0  0  0  0  0  0  0  0  0
    5.2285    1.0132   21.5146 C   0  0  0  0  0  0  0  0  0  0  0  0
    4.1774    1.8290   21.8317 C   0  0  0  0  0  0  0  0  0  0  0  0
    3.4732    2.4970   20.8388 C   0  0  0  0  0  0  0  0  0  0  0  0
    3.8191    2.3531   19.5258 C   0  0  0  0  0  0  0  0  0  0  0  0
    4.8982    1.5103   19.1507 C   0  0  0  0  0  0  0  0  0  0  0  0
    5.2321    1.2464   17.8056 C   0  0  0  0  0  0  0  0  0  0  0  0
    6.1522    0.3775   17.4265 N   0  0  0  0  0  0  0  0  0  0  0  0
    6.7944   -0.2984   18.3834 C   0  0  0  0  0  0  0  0  0  0  0  0
    9.1894    8.6900   25.5038 H   0  0  0  0  0  0  0  0  0  0  0  0
   10.9821   10.3525   26.3547 H   0  0  0  0  0  0  0  0  0  0  0  0
   13.3688    9.5552   25.3363 H   0  0  0  0  0  0  0  0  0  0  0  0
   13.8753    5.7340   21.6495 H   0  0  0  0  0  0  0  0  0  0  0  0
   14.7147    4.7553   22.9002 H   0  0  0  0  0  0  0  0  0  0  0  0
   11.9906    4.1872   21.6423 H   0  0  0  0  0  0  0  0  0  0  0  0
   13.5147    3.2719   21.3858 H   0  0  0  0  0  0  0  0  0  0  0  0
   13.3277    4.7277   25.3502 H   0  0  0  0  0  0  0  0  0  0  0  0
   11.7930    5.6576   25.2718 H   0  0  0  0  0  0  0  0  0  0  0  0
   11.4988    3.1631   25.0445 H   0  0  0  0  0  0  0  0  0  0  0  0
   10.8632    4.1051   23.6534 H   0  0  0  0  0  0  0  0  0  0  0  0
   14.3797    1.0832   22.7758 H   0  0  0  0  0  0  0  0  0  0  0  0
   10.2104    1.9641   23.2749 H   0  0  0  0  0  0  0  0  0  0  0  0
   11.4469   -1.9114   21.9456 H   0  0  0  0  0  0  0  0  0  0  0  0
    9.1829   -1.5171   22.2809 H   0  0  0  0  0  0  0  0  0  0  0  0
    8.7083   -0.2017   23.4085 H   0  0  0  0  0  0  0  0  0  0  0  0
    7.8488   -1.4693   20.6751 H   0  0  0  0  0  0  0  0  0  0  0  0
    5.7641    0.5065   22.3036 H   0  0  0  0  0  0  0  0  0  0  0  0
    3.8920    1.9550   22.8658 H   0  0  0  0  0  0  0  0  0  0  0  0
    2.6448    3.1357   21.1073 H   0  0  0  0  0  0  0  0  0  0  0  0
    3.2666    2.8853   18.7656 H   0  0  0  0  0  0  0  0  0  0  0  0
    4.7018    1.7891   17.0371 H   0  0  0  0  0  0  0  0  0  0  0  0
    7.5033   -1.0490   18.0663 H   0  0  0  0  0  0  0  0  0  0  0  0
  1  2  2  0  0  0  0
  2  3  1  0  0  0  0
  2  8  1  0  0  0  0
  3  4  1  0  0  0  0
  3  7  2  0  0  0  0
  4  5  1  0  0  0  0
  5  6  2  0  0  0  0
  5 35  1  0  0  0  0
  6  7  1  0  0  0  0
  6 36  1  0  0  0  0
  7 37  1  0  0  0  0
  8  9  1  0  0  0  0
  8 11  1  0  0  0  0
  9 10  1  0  0  0  0
  9 38  1  0  0  0  0
  9 39  1  0  0  0  0
 10 13  1  0  0  0  0
 10 40  1  0  0  0  0
 10 41  1  0  0  0  0
 11 12  1  0  0  0  0
 11 42  1  0  0  0  0
 11 43  1  0  0  0  0
 12 13  1  0  0  0  0
 12 44  1  0  0  0  0
 12 45  1  0  0  0  0
 13 14  1  0  0  0  0
 14 15  2  0  0  0  0
 14 18  1  0  0  0  0
 15 16  1  0  0  0  0
 15 46  1  0  0  0  0
 16 17  1  0  0  0  0
 16 20  2  0  0  0  0
 18 19  2  0  0  0  0
 18 47  1  0  0  0  0
 19 20  1  0  0  0  0
 19 21  1  0  0  0  0
 20 48  1  0  0  0  0
 21 22  1  0  0  0  0
 21 49  1  0  0  0  0
 21 50  1  0  0  0  0
 22 23  2  0  0  0  0
 22 24  1  0  0  0  0
 24 25  1  0  0  0  0
 24 51  1  0  0  0  0
 25 26  2  0  0  0  0
 25 34  1  0  0  0  0
 26 27  1  0  0  0  0
 26 31  1  0  0  0  0
 27 28  2  0  0  0  0
 27 52  1  0  0  0  0
 28 29  1  0  0  0  0
 28 53  1  0  0  0  0
 29 30  2  0  0  0  0
 29 54  1  0  0  0  0
 30 31  1  0  0  0  0
 30 55  1  0  0  0  0
 31 32  2  0  0  0  0
 32 33  1  0  0  0  0
 32 56  1  0  0  0  0
 33 34  2  0  0  0  0
 34 57  1  0  0  0  0
M  END
> <compound_name>
LON-WEI-9739a092-6

> <provenance>
{"isomeric_smiles": "c1ccc2c(c1)cncc2NC(=O)Cc3cc(cc(c3)Cl)N4CCN(CC4)C(=O)c5ccco5", "inchi": "InChI=1S/C26H23ClN4O3/c27-20-12-18(14-25(32)29-23-17-28-16-19-4-1-2-5-22(19)23)13-21(15-20)30-7-9-31(10-8-30)26(33)24-6-3-11-34-24/h1-6,11-13,15-17H,7-10,14H2,(H,29,32)", "inchi_key": "KIVBNAMDYXZGMT-UHFFFAOYSA-N", "fixed_inchi": "InChI=1/C26H23ClN4O3/c27-20-12-18(14-25(32)29-23-17-28-16-19-4-1-2-5-22(19)23)13-21(15-20)30-7-9-31(10-8-30)26(33)24-6-3-11-34-24/h1-6,11-13,15-17H,7-10,14H2,(H,29,32)/f/h29H", "fixed_inchikey": "KIVBNAMDYXZGMT-PKRZOPRNNA-N"}

> <data_format>
sdf

$$$$
