LIG(A-305)
  -OEChem-06042511343D

 29 30  0     0  0  0  0  0  0999 V2000
    8.7225   -1.4378   23.4012 S   0  0  0  0  0  0  0  0  0  0  0  0
   12.8428    0.4196   23.1231 C   0  0  0  0  0  0  0  0  0  0  0  0
    9.9561   -5.3821   25.2368 N   0  0  0  0  0  0  0  0  0  0  0  0
    8.3835   -3.6100   26.7470 C   0  0  0  0  0  0  0  0  0  0  0  0
   11.2745   -1.2941   22.4670 C   0  0  0  0  0  0  0  0  0  0  0  0
    7.7827   -0.3697   23.2453 O   0  0  0  0  0  0  0  0  0  0  0  0
    7.5626   -2.6670   27.5882 C   0  0  0  0  0  0  0  0  0  0  0  0
   11.8989    0.9407   23.9972 C   0  0  0  0  0  0  0  0  0  0  0  0
    8.7263   -4.8711   27.2249 C   0  0  0  0  0  0  0  0  0  0  0  0
   10.3416   -0.7450   23.3331 C   0  0  0  0  0  0  0  0  0  0  0  0
    8.5096   -1.9779   24.9252 N   0  0  0  0  0  0  0  0  0  0  0  0
    8.6713   -2.5537   22.5081 O   0  0  0  0  0  0  0  0  0  0  0  0
    8.8484   -3.2500   25.4710 C   0  0  0  0  0  0  0  0  0  0  0  0
   10.6468    0.3599   24.1122 C   0  0  0  0  0  0  0  0  0  0  0  0
    9.6332   -4.1710   24.7689 C   0  0  0  0  0  0  0  0  0  0  0  0
   12.5196   -0.7003   22.3840 C   0  0  0  0  0  0  0  0  0  0  0  0
    9.4991   -5.7101   26.4478 C   0  0  0  0  0  0  0  0  0  0  0  0
   13.7264   -1.4104   21.3509 Cl  0  0  0  0  0  0  0  0  0  0  0  0
   13.8134    0.8825   23.0229 H   0  0  0  0  0  0  0  0  0  0  0  0
   11.0344   -2.1633   21.8727 H   0  0  0  0  0  0  0  0  0  0  0  0
    7.3249   -3.1449   28.5499 H   0  0  0  0  0  0  0  0  0  0  0  0
    8.1343   -1.7446   27.7686 H   0  0  0  0  0  0  0  0  0  0  0  0
    6.6293   -2.4224   27.0599 H   0  0  0  0  0  0  0  0  0  0  0  0
   12.1432    1.8074   24.5934 H   0  0  0  0  0  0  0  0  0  0  0  0
    8.3892   -5.1919   28.1995 H   0  0  0  0  0  0  0  0  0  0  0  0
    7.6906   -1.5922   25.3500 H   0  0  0  0  0  0  0  0  0  0  0  0
    9.9179    0.7626   24.7999 H   0  0  0  0  0  0  0  0  0  0  0  0
    9.9995   -3.8881   23.7931 H   0  0  0  0  0  0  0  0  0  0  0  0
    9.7477   -6.6850   26.8406 H   0  0  0  0  0  0  0  0  0  0  0  0
  1  6  2  0  0  0  0
  1 10  1  0  0  0  0
  1 11  1  0  0  0  0
  1 12  2  0  0  0  0
  2  8  2  0  0  0  0
  2 16  1  0  0  0  0
  2 19  1  0  0  0  0
  3 15  1  0  0  0  0
  3 17  2  0  0  0  0
  4  7  1  0  0  0  0
  4  9  2  0  0  0  0
  4 13  1  0  0  0  0
  5 10  1  0  0  0  0
  5 16  2  0  0  0  0
  5 20  1  0  0  0  0
  7 21  1  0  0  0  0
  7 22  1  0  0  0  0
  7 23  1  0  0  0  0
  8 14  1  0  0  0  0
  8 24  1  0  0  0  0
  9 17  1  0  0  0  0
  9 25  1  0  0  0  0
 10 14  2  0  0  0  0
 11 13  1  0  0  0  0
 11 26  1  0  0  0  0
 13 15  2  0  0  0  0
 14 27  1  0  0  0  0
 15 28  1  0  0  0  0
 16 18  1  0  0  0  0
 17 29  1  0  0  0  0
M  END
> <compound_name>
JAN-GHE-83b26c96-21

> <provenance>
{"isomeric_smiles": "Cc1ccncc1NS(=O)(=O)c2cccc(c2)Cl", "inchi": "InChI=1S/C12H11ClN2O2S/c1-9-5-6-14-8-12(9)15-18(16,17)11-4-2-3-10(13)7-11/h2-8,15H,1H3", "inchi_key": "XFTYNEPZRSHDOA-UHFFFAOYSA-N", "fixed_inchi": "InChI=1/C12H11ClN2O2S/c1-9-5-6-14-8-12(9)15-18(16,17)11-4-2-3-10(13)7-11/h2-8,15H,1H3", "fixed_inchikey": "XFTYNEPZRSHDOA-UHFFFAOYNA-N"}

> <data_format>
sdf

$$$$
