LIG(A-305)
  -OEChem-06042511323D

 26 27  0     1  0  0  0  0  0999 V2000
    9.5588    1.8206   22.2676 C   0  0  0  0  0  0  0  0  0  0  0  0
    9.1738    1.1616   23.6346 C   0  0  1  0  0  0  0  0  0  0  0  0
    7.8488    1.0687   23.7856 C   0  0  0  0  0  0  0  0  0  0  0  0
    7.4567   -0.4403   23.3716 C   0  0  0  0  0  0  0  0  0  0  0  0
    8.8257   -1.1344   23.0356 C   0  0  0  0  0  0  0  0  0  0  0  0
    9.7477   -0.4004   23.7156 C   0  0  1  0  0  0  0  0  0  0  0  0
   11.1747   -0.4875   23.1196 C   0  0  0  0  0  0  0  0  0  0  0  0
   12.1807    0.4344   23.4976 C   0  0  0  0  0  0  0  0  0  0  0  0
   13.4357    0.2234   22.8756 C   0  0  0  0  0  0  0  0  0  0  0  0
   11.5526   -1.4825   22.1966 C   0  0  0  0  0  0  0  0  0  0  0  0
   10.3499    3.0595   22.2726 N   0  0  0  0  0  0  0  0  0  0  0  0
    9.2258    1.3206   21.2136 O   0  0  0  0  0  0  0  0  0  0  0  0
   13.2416   -1.1706   21.8346 S   0  0  0  0  0  0  0  0  0  0  0  0
    9.6452    1.7322   24.4483 H   0  0  0  0  0  0  0  0  0  0  0  0
    7.5691    1.2626   24.8316 H   0  0  0  0  0  0  0  0  0  0  0  0
    7.3382    1.7894   23.1299 H   0  0  0  0  0  0  0  0  0  0  0  0
    6.9570   -0.9535   24.2064 H   0  0  0  0  0  0  0  0  0  0  0  0
    6.7959   -0.4414   22.4922 H   0  0  0  0  0  0  0  0  0  0  0  0
    8.8281   -2.1793   23.3795 H   0  0  0  0  0  0  0  0  0  0  0  0
    9.0234   -1.1039   21.9540 H   0  0  0  0  0  0  0  0  0  0  0  0
    9.7877   -0.6836   24.7778 H   0  0  0  0  0  0  0  0  0  0  0  0
   12.0055    1.2334   24.2027 H   0  0  0  0  0  0  0  0  0  0  0  0
   14.3339    0.8065   23.0157 H   0  0  0  0  0  0  0  0  0  0  0  0
   10.9333   -2.2714   21.7960 H   0  0  0  0  0  0  0  0  0  0  0  0
   10.6125    3.4886   21.4083 H   0  0  0  0  0  0  0  0  0  0  0  0
   10.6254    3.4733   23.1403 H   0  0  0  0  0  0  0  0  0  0  0  0
  1  2  1  0  0  0  0
  1 11  1  0  0  0  0
  1 12  2  0  0  0  0
  2  3  1  0  0  0  0
  2  6  1  0  0  0  0
  2 14  1  0  0  0  0
  3  4  1  0  0  0  0
  3 15  1  0  0  0  0
  3 16  1  0  0  0  0
  4  5  1  0  0  0  0
  4 17  1  0  0  0  0
  4 18  1  0  0  0  0
  5  6  1  0  0  0  0
  5 19  1  0  0  0  0
  5 20  1  0  0  0  0
  6  7  1  0  0  0  0
  6 21  1  0  0  0  0
  7  8  1  0  0  0  0
  7 10  2  0  0  0  0
  8  9  2  0  0  0  0
  8 22  1  0  0  0  0
  9 13  1  0  0  0  0
  9 23  1  0  0  0  0
 10 13  1  0  0  0  0
 10 24  1  0  0  0  0
 11 25  1  0  0  0  0
 11 26  1  0  0  0  0
M  END
> <compound_name>
AAR-POS-d2a4d1df-14

> <provenance>
{"isomeric_smiles": "c1cscc1[C@@H]2CCC[C@@H]2C(=O)N", "inchi": "InChI=1S/C10H13NOS/c11-10(12)9-3-1-2-8(9)7-4-5-13-6-7/h4-6,8-9H,1-3H2,(H2,11,12)/t8-,9-/m0/s1", "inchi_key": "GQGCCJATUDDTKK-IUCAKERBSA-N", "fixed_inchi": "InChI=1/C10H13NOS/c11-10(12)9-3-1-2-8(9)7-4-5-13-6-7/h4-6,8-9H,1-3H2,(H2,11,12)/t8-,9-/m0/s1/f/h11H2", "fixed_inchikey": "GQGCCJATUDDTKK-GRRXJINSNA-N"}

> <data_format>
sdf

$$$$
