LIG(A-306)
  -OEChem-06042511433D

 53 57  0     1  0  0  0  0  0999 V2000
   11.0541    3.1144   24.3671 O   0  0  0  0  0  0  0  0  0  0  0  0
   10.6627    1.9985   24.0886 C   0  0  0  0  0  0  0  0  0  0  0  0
    9.3950    1.5918   24.3528 N   0  0  0  0  0  0  0  0  0  0  0  0
    8.5158    2.4136   25.1631 C   0  0  0  0  0  0  0  0  0  0  0  0
    7.8551    3.5925   24.4611 C   0  0  0  0  0  0  0  0  0  0  0  0
    7.1678    4.3837   25.1021 O   0  0  0  0  0  0  0  0  0  0  0  0
    8.0251    3.7116   23.1496 N   0  0  0  0  0  0  0  0  0  0  0  0
    7.2408    4.6332   22.3483 C   0  0  0  0  0  0  0  0  0  0  0  0
   11.5326    1.0281   23.4066 C   0  0  0  0  0  0  0  0  0  0  0  0
   12.8952    1.3038   23.3117 C   0  0  0  0  0  0  0  0  0  0  0  0
   13.7353    0.4454   22.6313 C   0  0  0  0  0  0  0  0  0  0  0  0
   13.2138   -0.6967   22.0647 C   0  0  0  0  0  0  0  0  0  0  0  0
   14.2615   -1.7353   21.1454 Cl  0  0  0  0  0  0  0  0  0  0  0  0
   11.8722   -1.0185   22.1654 C   0  0  0  0  0  0  0  0  0  0  0  0
   11.0141   -0.1359   22.8170 C   0  0  0  0  0  0  0  0  0  0  0  0
    9.4947   -0.3135   22.7554 C   0  0  1  0  0  0  0  0  0  0  0  0
    8.9521    0.2169   24.1091 C   0  0  0  0  0  0  0  0  0  0  0  0
    8.8601    0.4994   21.6185 C   0  0  0  0  0  0  0  0  0  0  0  0
    9.1874    1.6185   21.2670 O   0  0  0  0  0  0  0  0  0  0  0  0
    7.8415   -0.2288   21.0851 N   0  0  0  0  0  0  0  0  0  0  0  0
    7.6740   -1.5368   21.7417 C   0  0  0  0  0  0  0  0  0  0  0  0
    9.0177   -1.7550   22.4403 C   0  0  0  0  0  0  0  0  0  0  0  0
    6.9892    0.2102   20.0214 C   0  0  0  0  0  0  0  0  0  0  0  0
    5.8640    1.0401   20.3128 C   0  0  0  0  0  0  0  0  0  0  0  0
    5.4991    1.4313   21.6278 C   0  0  0  0  0  0  0  0  0  0  0  0
    4.4168    2.2476   21.8120 C   0  0  0  0  0  0  0  0  0  0  0  0
    4.0643    2.8264   23.4190 Cl  0  0  0  0  0  0  0  0  0  0  0  0
    3.6355    2.6905   20.7544 C   0  0  0  0  0  0  0  0  0  0  0  0
    3.9635    2.3351   19.4785 C   0  0  0  0  0  0  0  0  0  0  0  0
    5.0817    1.5081   19.2182 C   0  0  0  0  0  0  0  0  0  0  0  0
    5.4726    1.1158   17.9102 C   0  0  0  0  0  0  0  0  0  0  0  0
    6.5230    0.3499   17.6442 N   0  0  0  0  0  0  0  0  0  0  0  0
    7.2473   -0.0837   18.6859 C   0  0  0  0  0  0  0  0  0  0  0  0
    7.7171    1.7657   25.5532 H   0  0  0  0  0  0  0  0  0  0  0  0
    9.1072    2.8115   26.0009 H   0  0  0  0  0  0  0  0  0  0  0  0
    8.7167    3.1474   22.6988 H   0  0  0  0  0  0  0  0  0  0  0  0
    7.5523    4.5615   21.2958 H   0  0  0  0  0  0  0  0  0  0  0  0
    6.1745    4.3769   22.4332 H   0  0  0  0  0  0  0  0  0  0  0  0
    7.4009    5.6601   22.7087 H   0  0  0  0  0  0  0  0  0  0  0  0
   13.2963    2.1941   23.7732 H   0  0  0  0  0  0  0  0  0  0  0  0
   14.7888    0.6667   22.5442 H   0  0  0  0  0  0  0  0  0  0  0  0
   11.4960   -1.9396   21.7453 H   0  0  0  0  0  0  0  0  0  0  0  0
    7.8525    0.1918   24.0900 H   0  0  0  0  0  0  0  0  0  0  0  0
    9.3195   -0.4281   24.9209 H   0  0  0  0  0  0  0  0  0  0  0  0
    6.8508   -1.5091   22.4707 H   0  0  0  0  0  0  0  0  0  0  0  0
    7.4818   -2.3274   21.0015 H   0  0  0  0  0  0  0  0  0  0  0  0
    8.8913   -2.3388   23.3640 H   0  0  0  0  0  0  0  0  0  0  0  0
    9.7282   -2.2688   21.7761 H   0  0  0  0  0  0  0  0  0  0  0  0
    6.0715    1.0871   22.4764 H   0  0  0  0  0  0  0  0  0  0  0  0
    2.7726    3.3129   20.9399 H   0  0  0  0  0  0  0  0  0  0  0  0
    3.3609    2.6901   18.6555 H   0  0  0  0  0  0  0  0  0  0  0  0
    4.8768    1.4630   17.0790 H   0  0  0  0  0  0  0  0  0  0  0  0
    8.0995   -0.7115   18.4713 H   0  0  0  0  0  0  0  0  0  0  0  0
  1  2  2  0  0  0  0
  2  3  1  0  0  0  0
  2  9  1  0  0  0  0
  3  4  1  0  0  0  0
  3 17  1  0  0  0  0
  4  5  1  0  0  0  0
  4 34  1  0  0  0  0
  4 35  1  0  0  0  0
  5  6  2  0  0  0  0
  5  7  1  0  0  0  0
  7  8  1  0  0  0  0
  7 36  1  0  0  0  0
  8 37  1  0  0  0  0
  8 38  1  0  0  0  0
  8 39  1  0  0  0  0
  9 10  2  0  0  0  0
  9 15  1  0  0  0  0
 10 11  1  0  0  0  0
 10 40  1  0  0  0  0
 11 12  2  0  0  0  0
 11 41  1  0  0  0  0
 12 13  1  0  0  0  0
 12 14  1  0  0  0  0
 14 15  2  0  0  0  0
 14 42  1  0  0  0  0
 15 16  1  0  0  0  0
 16 17  1  0  0  0  0
 16 18  1  0  0  0  0
 16 22  1  0  0  0  0
 17 43  1  0  0  0  0
 17 44  1  0  0  0  0
 18 19  2  0  0  0  0
 18 20  1  0  0  0  0
 20 21  1  0  0  0  0
 20 23  1  0  0  0  0
 21 22  1  0  0  0  0
 21 45  1  0  0  0  0
 21 46  1  0  0  0  0
 22 47  1  0  0  0  0
 22 48  1  0  0  0  0
 23 24  2  0  0  0  0
 23 33  1  0  0  0  0
 24 25  1  0  0  0  0
 24 30  1  0  0  0  0
 25 26  2  0  0  0  0
 25 49  1  0  0  0  0
 26 27  1  0  0  0  0
 26 28  1  0  0  0  0
 28 29  2  0  0  0  0
 28 50  1  0  0  0  0
 29 30  1  0  0  0  0
 29 51  1  0  0  0  0
 30 31  2  0  0  0  0
 31 32  1  0  0  0  0
 31 52  1  0  0  0  0
 32 33  2  0  0  0  0
 33 53  1  0  0  0  0
M  END
> <compound_name>
EDG-MED-b1ef7fe3-1

> <provenance>
{"isomeric_smiles": "CNC(=O)CN1C[C@]2(CCN(C2=O)c3cncc4c3cc(cc4)Cl)c5cc(ccc5C1=O)Cl", "inchi": "InChI=1S/C24H20Cl2N4O3/c1-27-21(31)12-29-13-24(19-9-16(26)4-5-17(19)22(29)32)6-7-30(23(24)33)20-11-28-10-14-2-3-15(25)8-18(14)20/h2-5,8-11H,6-7,12-13H2,1H3,(H,27,31)/t24-/m1/s1", "inchi_key": "JZJCSVMJFIAMQB-XMMPIXPASA-N", "fixed_inchi": "InChI=1/C24H20Cl2N4O3/c1-27-21(31)12-29-13-24(19-9-16(26)4-5-17(19)22(29)32)6-7-30(23(24)33)20-11-28-10-14-2-3-15(25)8-18(14)20/h2-5,8-11H,6-7,12-13H2,1H3,(H,27,31)/t24-/m1/s1/f/h27H", "fixed_inchikey": "JZJCSVMJFIAMQB-DLYUOGNHNA-N"}

> <data_format>
sdf

$$$$
