LIG(A-306)
  -OEChem-06042511413D

 39 42  0     1  0  0  0  0  0999 V2000
   13.8153   -1.5877   21.5575 Cl  0  0  0  0  0  0  0  0  0  0  0  0
   12.4804   -0.8639   22.3998 C   0  0  0  0  0  0  0  0  0  0  0  0
   12.6905    0.0981   23.3808 C   0  0  0  0  0  0  0  0  0  0  0  0
   14.2905    0.5082   23.9066 Cl  0  0  0  0  0  0  0  0  0  0  0  0
   11.1934   -1.2220   22.0460 C   0  0  0  0  0  0  0  0  0  0  0  0
   10.0934   -0.6242   22.6603 C   0  0  0  0  0  0  0  0  0  0  0  0
   10.3185    0.3558   23.6433 C   0  0  0  0  0  0  0  0  0  0  0  0
   11.6175    0.7179   23.9881 C   0  0  0  0  0  0  0  0  0  0  0  0
    8.6764   -1.0603   22.3375 C   0  0  1  0  0  0  0  0  0  0  0  0
    7.8116   -0.9174   23.6037 C   0  0  0  0  0  0  0  0  0  0  0  0
    7.8716    0.5125   24.1107 C   0  0  0  0  0  0  0  0  0  0  0  0
    9.2585    0.9387   24.3075 N   0  0  0  0  0  0  0  0  0  0  0  0
    8.1151   -0.2013   21.2026 C   0  0  0  0  0  0  0  0  0  0  0  0
    8.6309    0.8668   20.8716 O   0  0  0  0  0  0  0  0  0  0  0  0
    6.9990   -0.7044   20.6188 N   0  0  0  0  0  0  0  0  0  0  0  0
    6.2248   -0.1194   19.6000 C   0  0  0  0  0  0  0  0  0  0  0  0
    5.2498    0.8615   19.9592 C   0  0  0  0  0  0  0  0  0  0  0  0
    4.7200    1.0124   21.2633 C   0  0  0  0  0  0  0  0  0  0  0  0
    3.7509    1.9502   21.4866 C   0  0  0  0  0  0  0  0  0  0  0  0
    3.2637    2.7702   20.5417 N   0  0  0  0  0  0  0  0  0  0  0  0
    3.7465    2.6474   19.3076 C   0  0  0  0  0  0  0  0  0  0  0  0
    4.7375    1.7035   18.9364 C   0  0  0  0  0  0  0  0  0  0  0  0
    5.2053    1.4906   17.6203 C   0  0  0  0  0  0  0  0  0  0  0  0
    6.0533    0.5367   17.2751 N   0  0  0  0  0  0  0  0  0  0  0  0
    6.5266   -0.2523   18.2469 C   0  0  0  0  0  0  0  0  0  0  0  0
   11.0378   -1.9730   21.2856 H   0  0  0  0  0  0  0  0  0  0  0  0
   11.7857    1.4839   24.7307 H   0  0  0  0  0  0  0  0  0  0  0  0
    8.6822   -2.1146   22.0237 H   0  0  0  0  0  0  0  0  0  0  0  0
    6.7696   -1.1765   23.3649 H   0  0  0  0  0  0  0  0  0  0  0  0
    8.1893   -1.5967   24.3820 H   0  0  0  0  0  0  0  0  0  0  0  0
    7.3917    1.1757   23.3759 H   0  0  0  0  0  0  0  0  0  0  0  0
    7.3352    0.5778   25.0689 H   0  0  0  0  0  0  0  0  0  0  0  0
    9.4698    1.2506   25.2338 H   0  0  0  0  0  0  0  0  0  0  0  0
    6.6903   -1.5954   20.9514 H   0  0  0  0  0  0  0  0  0  0  0  0
    5.0775    0.3934   22.0728 H   0  0  0  0  0  0  0  0  0  0  0  0
    3.3519    2.0372   22.4864 H   0  0  0  0  0  0  0  0  0  0  0  0
    3.3604    3.3057   18.5434 H   0  0  0  0  0  0  0  0  0  0  0  0
    4.8463    2.1509   16.8447 H   0  0  0  0  0  0  0  0  0  0  0  0
    7.1928   -1.0525   17.9603 H   0  0  0  0  0  0  0  0  0  0  0  0
  1  2  1  0  0  0  0
  2  3  1  0  0  0  0
  2  5  2  0  0  0  0
  3  4  1  0  0  0  0
  3  8  2  0  0  0  0
  5  6  1  0  0  0  0
  5 26  1  0  0  0  0
  6  7  2  0  0  0  0
  6  9  1  0  0  0  0
  7  8  1  0  0  0  0
  7 12  1  0  0  0  0
  8 27  1  0  0  0  0
  9 10  1  0  0  0  0
  9 13  1  0  0  0  0
  9 28  1  0  0  0  0
 10 11  1  0  0  0  0
 10 29  1  0  0  0  0
 10 30  1  0  0  0  0
 11 12  1  0  0  0  0
 11 31  1  0  0  0  0
 11 32  1  0  0  0  0
 12 33  1  0  0  0  0
 13 14  2  0  0  0  0
 13 15  1  0  0  0  0
 15 16  1  0  0  0  0
 15 34  1  0  0  0  0
 16 17  2  0  0  0  0
 16 25  1  0  0  0  0
 17 18  1  0  0  0  0
 17 22  1  0  0  0  0
 18 19  2  0  0  0  0
 18 35  1  0  0  0  0
 19 20  1  0  0  0  0
 19 36  1  0  0  0  0
 20 21  2  0  0  0  0
 21 22  1  0  0  0  0
 21 37  1  0  0  0  0
 22 23  2  0  0  0  0
 23 24  1  0  0  0  0
 23 38  1  0  0  0  0
 24 25  2  0  0  0  0
 25 39  1  0  0  0  0
M  END
> <compound_name>
ALP-UNI-8d415491-3

> <provenance>
{"isomeric_smiles": "c1cncc2c1c(cnc2)NC(=O)[C@@H]3CCNc4c3cc(c(c4)Cl)Cl", "inchi": "InChI=1S/C18H14Cl2N4O/c19-14-5-13-12(2-4-23-16(13)6-15(14)20)18(25)24-17-9-22-8-10-7-21-3-1-11(10)17/h1,3,5-9,12,23H,2,4H2,(H,24,25)/t12-/m1/s1", "inchi_key": "RQFXRLLVVUPDMA-GFCCVEGCSA-N", "fixed_inchi": "InChI=1/C18H14Cl2N4O/c19-14-5-13-12(2-4-23-16(13)6-15(14)20)18(25)24-17-9-22-8-10-7-21-3-1-11(10)17/h1,3,5-9,12,23H,2,4H2,(H,24,25)/t12-/m1/s1/f/h24H", "fixed_inchikey": "RQFXRLLVVUPDMA-SVSJVYIWNA-N"}

> <data_format>
sdf

$$$$
