LIG(A-306)
  -OEChem-06042511423D

 43 47  0     1  0  0  0  0  0999 V2000
    9.4985    1.4804   21.2412 O   0  0  0  0  0  0  0  0  0  0  0  0
    9.0554    0.4658   21.7442 C   0  0  0  0  0  0  0  0  0  0  0  0
    9.5723   -0.2116   23.0177 C   0  0  2  0  0  0  0  0  0  0  0  0
    8.9151    0.5128   24.2205 C   0  0  0  0  0  0  0  0  0  0  0  0
    9.8708    0.6820   25.3871 C   0  0  0  0  0  0  0  0  0  0  0  0
   11.0950    1.3214   24.9910 O   0  0  0  0  0  0  0  0  0  0  0  0
   11.1074   -0.1541   23.0597 C   0  0  0  0  0  0  0  0  0  0  0  0
   11.7634    0.6539   23.9966 C   0  0  0  0  0  0  0  0  0  0  0  0
   13.1378    0.8351   23.9682 C   0  0  0  0  0  0  0  0  0  0  0  0
   13.8822    0.1944   22.9948 C   0  0  0  0  0  0  0  0  0  0  0  0
   11.8788   -0.8340   22.1201 C   0  0  0  0  0  0  0  0  0  0  0  0
   13.2482   -0.6398   22.0978 C   0  0  0  0  0  0  0  0  0  0  0  0
   14.1972   -1.4708   20.8964 Cl  0  0  0  0  0  0  0  0  0  0  0  0
    7.9778   -0.2386   21.2899 N   0  0  0  0  0  0  0  0  0  0  0  0
    7.7903   -1.5197   21.9936 C   0  0  0  0  0  0  0  0  0  0  0  0
    9.0502   -1.6536   22.8407 C   0  0  0  0  0  0  0  0  0  0  0  0
    7.1194    0.1666   20.2141 C   0  0  0  0  0  0  0  0  0  0  0  0
    5.9422    0.9530   20.4263 C   0  0  0  0  0  0  0  0  0  0  0  0
    5.4683    1.3466   21.7084 C   0  0  0  0  0  0  0  0  0  0  0  0
    4.3419    2.1124   21.8385 C   0  0  0  0  0  0  0  0  0  0  0  0
    3.6396    2.5385   20.7147 C   0  0  0  0  0  0  0  0  0  0  0  0
    4.0575    2.1918   19.4609 C   0  0  0  0  0  0  0  0  0  0  0  0
    5.2148    1.3913   19.2807 C   0  0  0  0  0  0  0  0  0  0  0  0
    5.7047    1.0166   18.0027 C   0  0  0  0  0  0  0  0  0  0  0  0
    6.7931    0.2822   17.8108 N   0  0  0  0  0  0  0  0  0  0  0  0
    7.4635   -0.1246   18.8976 C   0  0  0  0  0  0  0  0  0  0  0  0
    8.5785    1.5074   23.8927 H   0  0  0  0  0  0  0  0  0  0  0  0
    8.0485   -0.0754   24.5564 H   0  0  0  0  0  0  0  0  0  0  0  0
    9.3834    1.2952   26.1595 H   0  0  0  0  0  0  0  0  0  0  0  0
   10.1057   -0.3099   25.8007 H   0  0  0  0  0  0  0  0  0  0  0  0
   13.6209    1.4688   24.6972 H   0  0  0  0  0  0  0  0  0  0  0  0
   14.9500    0.3457   22.9375 H   0  0  0  0  0  0  0  0  0  0  0  0
   11.4121   -1.5065   21.4157 H   0  0  0  0  0  0  0  0  0  0  0  0
    6.8921   -1.4911   22.6281 H   0  0  0  0  0  0  0  0  0  0  0  0
    7.7079   -2.3517   21.2787 H   0  0  0  0  0  0  0  0  0  0  0  0
    8.8130   -2.1009   23.8172 H   0  0  0  0  0  0  0  0  0  0  0  0
    9.7979   -2.2743   22.3250 H   0  0  0  0  0  0  0  0  0  0  0  0
    6.0056    1.0364   22.5924 H   0  0  0  0  0  0  0  0  0  0  0  0
    3.9943    2.3890   22.8228 H   0  0  0  0  0  0  0  0  0  0  0  0
    2.7565    3.1485   20.8350 H   0  0  0  0  0  0  0  0  0  0  0  0
    3.5018    2.5304   18.5990 H   0  0  0  0  0  0  0  0  0  0  0  0
    5.1581    1.3496   17.1327 H   0  0  0  0  0  0  0  0  0  0  0  0
    8.3443   -0.7289   18.7384 H   0  0  0  0  0  0  0  0  0  0  0  0
  1  2  2  0  0  0  0
  2  3  1  0  0  0  0
  2 14  1  0  0  0  0
  3  4  1  0  0  0  0
  3  7  1  0  0  0  0
  3 16  1  0  0  0  0
  4  5  1  0  0  0  0
  4 27  1  0  0  0  0
  4 28  1  0  0  0  0
  5  6  1  0  0  0  0
  5 29  1  0  0  0  0
  5 30  1  0  0  0  0
  6  8  1  0  0  0  0
  7  8  2  0  0  0  0
  7 11  1  0  0  0  0
  8  9  1  0  0  0  0
  9 10  2  0  0  0  0
  9 31  1  0  0  0  0
 10 12  1  0  0  0  0
 10 32  1  0  0  0  0
 11 12  2  0  0  0  0
 11 33  1  0  0  0  0
 12 13  1  0  0  0  0
 14 15  1  0  0  0  0
 14 17  1  0  0  0  0
 15 16  1  0  0  0  0
 15 34  1  0  0  0  0
 15 35  1  0  0  0  0
 16 36  1  0  0  0  0
 16 37  1  0  0  0  0
 17 18  2  0  0  0  0
 17 26  1  0  0  0  0
 18 19  1  0  0  0  0
 18 23  1  0  0  0  0
 19 20  2  0  0  0  0
 19 38  1  0  0  0  0
 20 21  1  0  0  0  0
 20 39  1  0  0  0  0
 21 22  2  0  0  0  0
 21 40  1  0  0  0  0
 22 23  1  0  0  0  0
 22 41  1  0  0  0  0
 23 24  2  0  0  0  0
 24 25  1  0  0  0  0
 24 42  1  0  0  0  0
 25 26  2  0  0  0  0
 26 43  1  0  0  0  0
M  END
> <compound_name>
ALP-POS-477dc5b7-4

> <provenance>
{"isomeric_smiles": "c1ccc2c(c1)cncc2N3CC[C@@]4(C3=O)CCOc5c4cc(cc5)Cl", "inchi": "InChI=1S/C21H17ClN2O2/c22-15-5-6-19-17(11-15)21(8-10-26-19)7-9-24(20(21)25)18-13-23-12-14-3-1-2-4-16(14)18/h1-6,11-13H,7-10H2/t21-/m1/s1", "inchi_key": "ZNASZZIYVWAOJK-OAQYLSRUSA-N", "fixed_inchi": "InChI=1/C21H17ClN2O2/c22-15-5-6-19-17(11-15)21(8-10-26-19)7-9-24(20(21)25)18-13-23-12-14-3-1-2-4-16(14)18/h1-6,11-13H,7-10H2/t21-/m1/s1", "fixed_inchikey": "ZNASZZIYVWAOJK-OAQYLSRUNA-N"}

> <data_format>
sdf

$$$$
