LIG(A-306)
  -OEChem-06042511413D

 64 69  0     1  0  0  0  0  0999 V2000
    9.3033    1.3101   20.9005 O   0  0  0  0  0  0  0  0  0  0  0  0
    8.8084    0.3391   21.4546 C   0  0  0  0  0  0  0  0  0  0  0  0
    7.6224   -0.2010   21.0658 N   0  0  0  0  0  0  0  0  0  0  0  0
    6.8141    0.1890   19.9730 C   0  0  0  0  0  0  0  0  0  0  0  0
    5.6611    1.0060   20.2153 C   0  0  0  0  0  0  0  0  0  0  0  0
    5.1784    1.3319   21.5114 C   0  0  0  0  0  0  0  0  0  0  0  0
    4.0894    2.1448   21.6716 C   0  0  0  0  0  0  0  0  0  0  0  0
    3.4291    2.6708   20.5688 C   0  0  0  0  0  0  0  0  0  0  0  0
    3.8479    2.3779   19.3037 C   0  0  0  0  0  0  0  0  0  0  0  0
    4.9679    1.5350   19.0894 C   0  0  0  0  0  0  0  0  0  0  0  0
    5.4416    1.1921   17.8003 C   0  0  0  0  0  0  0  0  0  0  0  0
    6.4856    0.4081   17.5741 N   0  0  0  0  0  0  0  0  0  0  0  0
    7.1409   -0.0719   18.6399 C   0  0  0  0  0  0  0  0  0  0  0  0
    9.4997   -0.3079   22.6794 C   0  0  1  0  0  0  0  0  0  0  0  0
   10.9967    0.0641   22.6921 C   0  0  0  0  0  0  0  0  0  0  0  0
   11.9156   -0.6508   21.9209 C   0  0  0  0  0  0  0  0  0  0  0  0
   13.2496   -0.2817   21.9286 C   0  0  0  0  0  0  0  0  0  0  0  0
   14.3844   -1.1916   20.9614 Cl  0  0  0  0  0  0  0  0  0  0  0  0
   13.7057    0.7903   22.6666 C   0  0  0  0  0  0  0  0  0  0  0  0
   12.8138    1.5002   23.4528 C   0  0  0  0  0  0  0  0  0  0  0  0
   11.4778    1.1281   23.4731 C   0  0  0  0  0  0  0  0  0  0  0  0
   10.6890    1.8250   24.3553 O   0  0  0  0  0  0  0  0  0  0  0  0
    9.2719    1.7740   24.1046 C   0  0  0  0  0  0  0  0  0  0  0  0
    8.7899    0.3560   23.8806 C   0  0  0  0  0  0  0  0  0  0  0  0
    9.3548   -1.8510   22.7264 C   0  0  0  0  0  0  0  0  0  0  0  0
    9.8931   -2.4980   23.9862 C   0  0  0  0  0  0  0  0  0  0  0  0
   10.7222   -1.9610   24.7091 O   0  0  0  0  0  0  0  0  0  0  0  0
    9.4202   -3.7150   24.3193 N   0  0  0  0  0  0  0  0  0  0  0  0
   10.1925   -4.6940   25.1091 C   0  0  1  0  0  0  0  0  0  0  0  0
    9.7837   -4.5061   26.5672 C   0  0  0  0  0  0  0  0  0  0  0  0
    8.0722   -4.2601   24.1535 C   0  0  0  0  0  0  0  0  0  0  0  0
    8.0775   -5.3851   25.1865 C   0  0  1  0  0  0  0  0  0  0  0  0
    9.4355   -5.9950   24.8272 C   0  0  0  0  0  0  0  0  0  0  0  0
    8.3548   -4.8242   26.5264 N   0  0  0  0  0  0  0  0  0  0  0  0
    7.4699   -4.5973   27.5306 C   0  0  0  0  0  0  0  0  0  0  0  0
    7.7722   -4.8553   28.6916 O   0  0  0  0  0  0  0  0  0  0  0  0
    6.1508   -3.9723   27.1769 C   0  0  0  0  0  0  0  0  0  0  0  0
    7.2821   -0.9628   21.6170 H   0  0  0  0  0  0  0  0  0  0  0  0
    5.6778    0.9326   22.3818 H   0  0  0  0  0  0  0  0  0  0  0  0
    3.7397    2.3799   22.6660 H   0  0  0  0  0  0  0  0  0  0  0  0
    2.5765    3.3176   20.7139 H   0  0  0  0  0  0  0  0  0  0  0  0
    3.3210    2.7922   18.4569 H   0  0  0  0  0  0  0  0  0  0  0  0
    4.9183    1.5955   16.9460 H   0  0  0  0  0  0  0  0  0  0  0  0
    7.9903   -0.7122   18.4533 H   0  0  0  0  0  0  0  0  0  0  0  0
   11.5871   -1.4871   21.3216 H   0  0  0  0  0  0  0  0  0  0  0  0
   14.7473    1.0731   22.6317 H   0  0  0  0  0  0  0  0  0  0  0  0
   13.1555    2.3362   24.0450 H   0  0  0  0  0  0  0  0  0  0  0  0
    8.7419    2.1974   24.9705 H   0  0  0  0  0  0  0  0  0  0  0  0
    9.0472    2.3718   23.2089 H   0  0  0  0  0  0  0  0  0  0  0  0
    8.9922   -0.2360   24.7854 H   0  0  0  0  0  0  0  0  0  0  0  0
    7.7070    0.3740   23.6887 H   0  0  0  0  0  0  0  0  0  0  0  0
    8.2860   -2.0976   22.6440 H   0  0  0  0  0  0  0  0  0  0  0  0
    9.8958   -2.2725   21.8663 H   0  0  0  0  0  0  0  0  0  0  0  0
   11.2758   -4.7286   24.9217 H   0  0  0  0  0  0  0  0  0  0  0  0
   10.3284   -5.1973   27.2271 H   0  0  0  0  0  0  0  0  0  0  0  0
    9.9536   -3.4714   26.8997 H   0  0  0  0  0  0  0  0  0  0  0  0
    7.3025   -3.5078   24.3809 H   0  0  0  0  0  0  0  0  0  0  0  0
    7.9166   -4.6479   23.1360 H   0  0  0  0  0  0  0  0  0  0  0  0
    7.2261   -6.0788   25.1229 H   0  0  0  0  0  0  0  0  0  0  0  0
    9.7302   -6.8233   25.4884 H   0  0  0  0  0  0  0  0  0  0  0  0
    9.5036   -6.3209   23.7787 H   0  0  0  0  0  0  0  0  0  0  0  0
    5.5646   -3.8087   28.0932 H   0  0  0  0  0  0  0  0  0  0  0  0
    6.3245   -3.0086   26.6759 H   0  0  0  0  0  0  0  0  0  0  0  0
    5.5972   -4.6418   26.5022 H   0  0  0  0  0  0  0  0  0  0  0  0
  1  2  2  0  0  0  0
  2  3  1  0  0  0  0
  2 14  1  0  0  0  0
  3  4  1  0  0  0  0
  3 38  1  0  0  0  0
  4  5  2  0  0  0  0
  4 13  1  0  0  0  0
  5  6  1  0  0  0  0
  5 10  1  0  0  0  0
  6  7  2  0  0  0  0
  6 39  1  0  0  0  0
  7  8  1  0  0  0  0
  7 40  1  0  0  0  0
  8  9  2  0  0  0  0
  8 41  1  0  0  0  0
  9 10  1  0  0  0  0
  9 42  1  0  0  0  0
 10 11  2  0  0  0  0
 11 12  1  0  0  0  0
 11 43  1  0  0  0  0
 12 13  2  0  0  0  0
 13 44  1  0  0  0  0
 14 15  1  0  0  0  0
 14 24  1  0  0  0  0
 14 25  1  0  0  0  0
 15 16  2  0  0  0  0
 15 21  1  0  0  0  0
 16 17  1  0  0  0  0
 16 45  1  0  0  0  0
 17 18  1  0  0  0  0
 17 19  2  0  0  0  0
 19 20  1  0  0  0  0
 19 46  1  0  0  0  0
 20 21  2  0  0  0  0
 20 47  1  0  0  0  0
 21 22  1  0  0  0  0
 22 23  1  0  0  0  0
 23 24  1  0  0  0  0
 23 48  1  0  0  0  0
 23 49  1  0  0  0  0
 24 50  1  0  0  0  0
 24 51  1  0  0  0  0
 25 26  1  0  0  0  0
 25 52  1  0  0  0  0
 25 53  1  0  0  0  0
 26 27  2  0  0  0  0
 26 28  1  0  0  0  0
 28 29  1  0  0  0  0
 28 31  1  0  0  0  0
 29 30  1  0  0  0  0
 29 33  1  0  0  0  0
 29 54  1  0  0  0  0
 30 34  1  0  0  0  0
 30 55  1  0  0  0  0
 30 56  1  0  0  0  0
 31 32  1  0  0  0  0
 31 57  1  0  0  0  0
 31 58  1  0  0  0  0
 32 33  1  0  0  0  0
 32 34  1  0  0  0  0
 32 59  1  0  0  0  0
 33 60  1  0  0  0  0
 33 61  1  0  0  0  0
 34 35  1  0  0  0  0
 35 36  2  0  0  0  0
 35 37  1  0  0  0  0
 37 62  1  0  0  0  0
 37 63  1  0  0  0  0
 37 64  1  0  0  0  0
M  END
> <compound_name>
KAD-UNI-80f122c8-2

> <provenance>
{"isomeric_smiles": "CC(=O)N1C[C@H]2C[C@@H]1CN2C(=O)C[C@]3(CCOc4c3cc(cc4)Cl)C(=O)Nc5cncc6c5cccc6", "inchi": "InChI=1S/C28H27ClN4O4/c1-17(34)32-15-21-11-20(32)16-33(21)26(35)12-28(8-9-37-25-7-6-19(29)10-23(25)28)27(36)31-24-14-30-13-18-4-2-3-5-22(18)24/h2-7,10,13-14,20-21H,8-9,11-12,15-16H2,1H3,(H,31,36)/t20-,21-,28+/m1/s1", "inchi_key": "XZDUBNODKZYWIO-CJYOKPGZSA-N", "fixed_inchi": "InChI=1/C28H27ClN4O4/c1-17(34)32-15-21-11-20(32)16-33(21)26(35)12-28(8-9-37-25-7-6-19(29)10-23(25)28)27(36)31-24-14-30-13-18-4-2-3-5-22(18)24/h2-7,10,13-14,20-21H,8-9,11-12,15-16H2,1H3,(H,31,36)/t20-,21-,28+/m1/s1/f/h31H", "fixed_inchikey": "XZDUBNODKZYWIO-UHJDPEPGNA-N"}

> <data_format>
sdf

$$$$
