LIG(A-306)
  -OEChem-06042511393D

 34 36  0     0  0  0  0  0  0999 V2000
   14.0419   -1.5670   21.5400 Cl  0  0  0  0  0  0  0  0  0  0  0  0
   12.7288   -0.7953   22.3766 C   0  0  0  0  0  0  0  0  0  0  0  0
   12.9631    0.2405   23.2751 C   0  0  0  0  0  0  0  0  0  0  0  0
   14.5710    0.8069   23.5946 Cl  0  0  0  0  0  0  0  0  0  0  0  0
   11.8995    0.8628   23.9013 C   0  0  0  0  0  0  0  0  0  0  0  0
   10.6068    0.4582   23.6291 C   0  0  0  0  0  0  0  0  0  0  0  0
   11.4371   -1.2059   22.1013 C   0  0  0  0  0  0  0  0  0  0  0  0
   10.3656   -0.5686   22.7216 C   0  0  0  0  0  0  0  0  0  0  0  0
    8.9548   -0.9851   22.3985 C   0  0  0  0  0  0  0  0  0  0  0  0
    8.9433   -2.2875   21.9939 F   0  0  0  0  0  0  0  0  0  0  0  0
    8.1928   -0.9445   23.5289 F   0  0  0  0  0  0  0  0  0  0  0  0
    8.3304   -0.0669   21.3147 C   0  0  0  0  0  0  0  0  0  0  0  0
    8.6308    1.1178   21.1979 O   0  0  0  0  0  0  0  0  0  0  0  0
    7.5204   -0.6813   20.4368 N   0  0  0  0  0  0  0  0  0  0  0  0
    6.4782   -0.2426   19.6082 C   0  0  0  0  0  0  0  0  0  0  0  0
    5.4555    0.6525   20.0691 C   0  0  0  0  0  0  0  0  0  0  0  0
    5.0540    0.7651   21.4257 C   0  0  0  0  0  0  0  0  0  0  0  0
    3.9891    1.5481   21.7848 C   0  0  0  0  0  0  0  0  0  0  0  0
    3.2828    2.2645   20.8303 C   0  0  0  0  0  0  0  0  0  0  0  0
    3.6334    2.1989   19.5127 C   0  0  0  0  0  0  0  0  0  0  0  0
    4.7192    1.3859   19.0956 C   0  0  0  0  0  0  0  0  0  0  0  0
    5.0677    1.2063   17.7392 C   0  0  0  0  0  0  0  0  0  0  0  0
    6.0034    0.3753   17.3134 N   0  0  0  0  0  0  0  0  0  0  0  0
    6.6577   -0.3381   18.2320 C   0  0  0  0  0  0  0  0  0  0  0  0
   12.0789    1.6643   24.6027 H   0  0  0  0  0  0  0  0  0  0  0  0
    9.7779    0.9423   24.1241 H   0  0  0  0  0  0  0  0  0  0  0  0
   11.2605   -2.0160   21.4093 H   0  0  0  0  0  0  0  0  0  0  0  0
    7.6992   -1.6620   20.3572 H   0  0  0  0  0  0  0  0  0  0  0  0
    5.5969    0.2248   22.1871 H   0  0  0  0  0  0  0  0  0  0  0  0
    3.6963    1.6083   22.8226 H   0  0  0  0  0  0  0  0  0  0  0  0
    2.4480    2.8797   21.1321 H   0  0  0  0  0  0  0  0  0  0  0  0
    3.0803    2.7703   18.7820 H   0  0  0  0  0  0  0  0  0  0  0  0
    4.5344    1.7862   17.0006 H   0  0  0  0  0  0  0  0  0  0  0  0
    7.3883   -1.0499   17.8770 H   0  0  0  0  0  0  0  0  0  0  0  0
  1  2  1  0  0  0  0
  2  3  2  0  0  0  0
  2  7  1  0  0  0  0
  3  4  1  0  0  0  0
  3  5  1  0  0  0  0
  5  6  2  0  0  0  0
  5 25  1  0  0  0  0
  6  8  1  0  0  0  0
  6 26  1  0  0  0  0
  7  8  2  0  0  0  0
  7 27  1  0  0  0  0
  8  9  1  0  0  0  0
  9 10  1  0  0  0  0
  9 11  1  0  0  0  0
  9 12  1  0  0  0  0
 12 13  2  0  0  0  0
 12 14  1  0  0  0  0
 14 15  1  0  0  0  0
 14 28  1  0  0  0  0
 15 16  2  0  0  0  0
 15 24  1  0  0  0  0
 16 17  1  0  0  0  0
 16 21  1  0  0  0  0
 17 18  2  0  0  0  0
 17 29  1  0  0  0  0
 18 19  1  0  0  0  0
 18 30  1  0  0  0  0
 19 20  2  0  0  0  0
 19 31  1  0  0  0  0
 20 21  1  0  0  0  0
 20 32  1  0  0  0  0
 21 22  2  0  0  0  0
 22 23  1  0  0  0  0
 22 33  1  0  0  0  0
 23 24  2  0  0  0  0
 24 34  1  0  0  0  0
M  END
> <compound_name>
MAT-POS-fce787c2-6

> <provenance>
{"isomeric_smiles": "c1ccc2c(c1)cncc2NC(=O)C(c3ccc(c(c3)Cl)Cl)(F)F", "inchi": "InChI=1S/C17H10Cl2F2N2O/c18-13-6-5-11(7-14(13)19)17(20,21)16(24)23-15-9-22-8-10-3-1-2-4-12(10)15/h1-9H,(H,23,24)", "inchi_key": "RSRGRXAYHCGNSK-UHFFFAOYSA-N", "fixed_inchi": "InChI=1/C17H10Cl2F2N2O/c18-13-6-5-11(7-14(13)19)17(20,21)16(24)23-15-9-22-8-10-3-1-2-4-12(10)15/h1-9H,(H,23,24)/f/h23H", "fixed_inchikey": "RSRGRXAYHCGNSK-MPIMZMORNA-N"}

> <data_format>
sdf

$$$$
