LIG(A-305)
  -OEChem-06042511353D

 39 41  0     1  0  0  0  0  0999 V2000
    9.2429   -0.6531   21.9985 N   0  0  0  0  0  0  0  0  0  0  0  0
   12.4443    4.2126   21.7235 N   0  0  0  0  0  0  0  0  0  0  0  0
    6.3438    0.6523   17.4227 N   0  0  0  0  0  0  0  0  0  0  0  0
   12.7859   -1.0275   22.9954 C   0  0  0  0  0  0  0  0  0  0  0  0
   12.1771    1.2956   23.1204 C   0  0  0  0  0  0  0  0  0  0  0  0
   12.6773    2.5335   23.4634 O   0  0  0  0  0  0  0  0  0  0  0  0
    5.2909    1.4094   17.7448 C   0  0  0  0  0  0  0  0  0  0  0  0
   11.4948   -1.3134   22.5714 C   0  0  0  0  0  0  0  0  0  0  0  0
    6.3528   -0.0688   19.7057 C   0  0  0  0  0  0  0  0  0  0  0  0
    7.1218   -0.6729   20.8596 C   0  0  0  0  0  0  0  0  0  0  0  0
    8.3919    0.0670   21.2356 C   0  0  0  0  0  0  0  0  0  0  0  0
   10.8891    1.0107   22.7045 C   0  0  0  0  0  0  0  0  0  0  0  0
   12.8525    4.8575   23.6545 C   0  0  0  0  0  0  0  0  0  0  0  0
    6.8537   -0.0838   18.4167 C   0  0  0  0  0  0  0  0  0  0  0  0
   12.0114    3.7306   23.0355 C   0  0  1  0  0  0  0  0  0  0  0  0
   13.0915    5.2875   22.2154 C   0  0  0  0  0  0  0  0  0  0  0  0
   13.8018   -2.1316   23.1693 C   0  0  0  0  0  0  0  0  0  0  0  0
    4.7259    1.5234   18.9518 N   0  0  0  0  0  0  0  0  0  0  0  0
    8.6070    1.2190   20.8716 O   0  0  0  0  0  0  0  0  0  0  0  0
   13.6466    6.2364   21.6624 O   0  0  0  0  0  0  0  0  0  0  0  0
    5.2789    0.7783   19.9158 C   0  0  0  0  0  0  0  0  0  0  0  0
   10.5449   -0.3073   22.4255 C   0  0  0  0  0  0  0  0  0  0  0  0
   13.1220    0.2925   23.2664 C   0  0  0  0  0  0  0  0  0  0  0  0
    8.9084   -1.5460   22.3000 H   0  0  0  0  0  0  0  0  0  0  0  0
   12.3087    3.8679   20.7946 H   0  0  0  0  0  0  0  0  0  0  0  0
    4.8502    1.9895   16.9475 H   0  0  0  0  0  0  0  0  0  0  0  0
   11.2231   -2.3351   22.3510 H   0  0  0  0  0  0  0  0  0  0  0  0
    6.4618   -0.6885   21.7396 H   0  0  0  0  0  0  0  0  0  0  0  0
    7.3941   -1.7032   20.5871 H   0  0  0  0  0  0  0  0  0  0  0  0
   10.1607    1.8011   22.5979 H   0  0  0  0  0  0  0  0  0  0  0  0
   12.2921    5.5757   24.2710 H   0  0  0  0  0  0  0  0  0  0  0  0
   13.7490    4.5274   24.1997 H   0  0  0  0  0  0  0  0  0  0  0  0
    7.6986   -0.7214   18.2018 H   0  0  0  0  0  0  0  0  0  0  0  0
   10.9329    3.7950   23.2419 H   0  0  0  0  0  0  0  0  0  0  0  0
   13.9528   -2.6462   22.2089 H   0  0  0  0  0  0  0  0  0  0  0  0
   14.7556   -1.7019   23.5089 H   0  0  0  0  0  0  0  0  0  0  0  0
   13.4368   -2.8510   23.9171 H   0  0  0  0  0  0  0  0  0  0  0  0
    4.8650    0.8415   20.9113 H   0  0  0  0  0  0  0  0  0  0  0  0
   14.1223    0.5377   23.5916 H   0  0  0  0  0  0  0  0  0  0  0  0
  1 11  1  0  0  0  0
  1 22  1  0  0  0  0
  1 24  1  0  0  0  0
  2 15  1  0  0  0  0
  2 16  1  0  0  0  0
  2 25  1  0  0  0  0
  3  7  2  0  0  0  0
  3 14  1  0  0  0  0
  4  8  2  0  0  0  0
  4 17  1  0  0  0  0
  4 23  1  0  0  0  0
  5  6  1  0  0  0  0
  5 12  1  0  0  0  0
  5 23  2  0  0  0  0
  6 15  1  0  0  0  0
  7 18  1  0  0  0  0
  7 26  1  0  0  0  0
  8 22  1  0  0  0  0
  8 27  1  0  0  0  0
  9 10  1  0  0  0  0
  9 14  2  0  0  0  0
  9 21  1  0  0  0  0
 10 11  1  0  0  0  0
 10 28  1  0  0  0  0
 10 29  1  0  0  0  0
 11 19  2  0  0  0  0
 12 22  2  0  0  0  0
 12 30  1  0  0  0  0
 13 15  1  0  0  0  0
 13 16  1  0  0  0  0
 13 31  1  0  0  0  0
 13 32  1  0  0  0  0
 14 33  1  0  0  0  0
 15 34  1  0  0  0  0
 16 20  2  0  0  0  0
 17 35  1  0  0  0  0
 17 36  1  0  0  0  0
 17 37  1  0  0  0  0
 18 21  2  0  0  0  0
 21 38  1  0  0  0  0
 23 39  1  0  0  0  0
M  END
> <compound_name>
RAL-MED-2de63afb-2

> <provenance>
{"isomeric_smiles": "Cc1cc(cc(c1)O[C@H]2CC(=O)N2)NC(=O)Cc3cncnc3", "inchi": "InChI=1S/C16H16N4O3/c1-10-2-12(5-13(3-10)23-16-6-15(22)20-16)19-14(21)4-11-7-17-9-18-8-11/h2-3,5,7-9,16H,4,6H2,1H3,(H,19,21)(H,20,22)/t16-/m0/s1", "inchi_key": "BBXRTGNKDKIMPV-INIZCTEOSA-N", "fixed_inchi": "InChI=1/C16H16N4O3/c1-10-2-12(5-13(3-10)23-16-6-15(22)20-16)19-14(21)4-11-7-17-9-18-8-11/h2-3,5,7-9,16H,4,6H2,1H3,(H,19,21)(H,20,22)/t16-/m0/s1/f/h19-20H", "fixed_inchikey": "BBXRTGNKDKIMPV-IQMGZVISNA-N"}

> <data_format>
sdf

$$$$
