LIG(A-306)
  -OEChem-06042511413D

 40 43  0     1  0  0  0  0  0999 V2000
    9.2290    1.1001   20.9463 O   0  0  0  0  0  0  0  0  0  0  0  0
    8.7001    0.1081   21.4314 C   0  0  0  0  0  0  0  0  0  0  0  0
    9.3183   -0.5930   22.6723 C   0  0  1  0  0  0  0  0  0  0  0  0
   10.8193   -0.4619   22.6241 C   0  0  0  0  0  0  0  0  0  0  0  0
   11.7712   -1.1528   21.8859 C   0  0  0  0  0  0  0  0  0  0  0  0
   13.0922   -0.7508   21.9758 C   0  0  0  0  0  0  0  0  0  0  0  0
   14.2641   -1.4817   20.9126 Cl  0  0  0  0  0  0  0  0  0  0  0  0
   13.4933    0.2772   22.8168 C   0  0  0  0  0  0  0  0  0  0  0  0
   12.5504    0.9401   23.5849 C   0  0  0  0  0  0  0  0  0  0  0  0
   11.2144    0.5661   23.4711 C   0  0  0  0  0  0  0  0  0  0  0  0
   10.1114    1.1020   24.1302 N   0  0  0  0  0  0  0  0  0  0  0  0
    8.9954    0.1819   23.9703 C   0  0  0  0  0  0  0  0  0  0  0  0
    8.9004   -2.0730   22.7892 C   0  0  0  0  0  0  0  0  0  0  0  0
    7.5421   -0.4030   20.9525 N   0  0  0  0  0  0  0  0  0  0  0  0
    6.7699    0.1081   19.8856 C   0  0  0  0  0  0  0  0  0  0  0  0
    5.6449    0.9350   20.1948 C   0  0  0  0  0  0  0  0  0  0  0  0
    5.2331    1.2459   21.5169 C   0  0  0  0  0  0  0  0  0  0  0  0
    4.1731    2.0799   21.7480 C   0  0  0  0  0  0  0  0  0  0  0  0
    3.4699    2.6379   20.6891 C   0  0  0  0  0  0  0  0  0  0  0  0
    3.8258    2.3680   19.3961 C   0  0  0  0  0  0  0  0  0  0  0  0
    4.9178    1.5070   19.1129 C   0  0  0  0  0  0  0  0  0  0  0  0
    5.3436    1.2041   17.7968 C   0  0  0  0  0  0  0  0  0  0  0  0
    6.3816    0.4322   17.5087 N   0  0  0  0  0  0  0  0  0  0  0  0
    7.0658   -0.0919   18.5346 C   0  0  0  0  0  0  0  0  0  0  0  0
   11.4875   -1.9837   21.2570 H   0  0  0  0  0  0  0  0  0  0  0  0
   14.5345    0.5588   22.8722 H   0  0  0  0  0  0  0  0  0  0  0  0
   12.8456    1.7311   24.2584 H   0  0  0  0  0  0  0  0  0  0  0  0
   10.0205    2.0623   24.3938 H   0  0  0  0  0  0  0  0  0  0  0  0
    8.9311   -0.5044   24.8275 H   0  0  0  0  0  0  0  0  0  0  0  0
    8.0485    0.7325   23.8696 H   0  0  0  0  0  0  0  0  0  0  0  0
    9.3656   -2.5164   23.6820 H   0  0  0  0  0  0  0  0  0  0  0  0
    7.8057   -2.1390   22.8753 H   0  0  0  0  0  0  0  0  0  0  0  0
    9.2315   -2.6192   21.8937 H   0  0  0  0  0  0  0  0  0  0  0  0
    7.1972   -1.2279   21.4003 H   0  0  0  0  0  0  0  0  0  0  0  0
    5.7647    0.8176   22.3537 H   0  0  0  0  0  0  0  0  0  0  0  0
    3.8810    2.3058   22.7630 H   0  0  0  0  0  0  0  0  0  0  0  0
    2.6336    3.2916   20.8882 H   0  0  0  0  0  0  0  0  0  0  0  0
    3.2710    2.8139   18.5839 H   0  0  0  0  0  0  0  0  0  0  0  0
    4.7867    1.6295   16.9750 H   0  0  0  0  0  0  0  0  0  0  0  0
    7.9132   -0.7185   18.2986 H   0  0  0  0  0  0  0  0  0  0  0  0
  1  2  2  0  0  0  0
  2  3  1  0  0  0  0
  2 14  1  0  0  0  0
  3  4  1  0  0  0  0
  3 12  1  0  0  0  0
  3 13  1  0  0  0  0
  4  5  2  0  0  0  0
  4 10  1  0  0  0  0
  5  6  1  0  0  0  0
  5 25  1  0  0  0  0
  6  7  1  0  0  0  0
  6  8  2  0  0  0  0
  8  9  1  0  0  0  0
  8 26  1  0  0  0  0
  9 10  2  0  0  0  0
  9 27  1  0  0  0  0
 10 11  1  0  0  0  0
 11 12  1  0  0  0  0
 11 28  1  0  0  0  0
 12 29  1  0  0  0  0
 12 30  1  0  0  0  0
 13 31  1  0  0  0  0
 13 32  1  0  0  0  0
 13 33  1  0  0  0  0
 14 15  1  0  0  0  0
 14 34  1  0  0  0  0
 15 16  2  0  0  0  0
 15 24  1  0  0  0  0
 16 17  1  0  0  0  0
 16 21  1  0  0  0  0
 17 18  2  0  0  0  0
 17 35  1  0  0  0  0
 18 19  1  0  0  0  0
 18 36  1  0  0  0  0
 19 20  2  0  0  0  0
 19 37  1  0  0  0  0
 20 21  1  0  0  0  0
 20 38  1  0  0  0  0
 21 22  2  0  0  0  0
 22 23  1  0  0  0  0
 22 39  1  0  0  0  0
 23 24  2  0  0  0  0
 24 40  1  0  0  0  0
M  END
> <compound_name>
EDJ-MED-2f867453-1

> <provenance>
{"isomeric_smiles": "C[C@]1(CNc2c1cc(cc2)Cl)C(=O)Nc3cncc4c3cccc4", "inchi": "InChI=1S/C19H16ClN3O/c1-19(11-22-16-7-6-13(20)8-15(16)19)18(24)23-17-10-21-9-12-4-2-3-5-14(12)17/h2-10,22H,11H2,1H3,(H,23,24)/t19-/m1/s1", "inchi_key": "GTVALCQWCWDFRA-LJQANCHMSA-N", "fixed_inchi": "InChI=1/C19H16ClN3O/c1-19(11-22-16-7-6-13(20)8-15(16)19)18(24)23-17-10-21-9-12-4-2-3-5-14(12)17/h2-10,22H,11H2,1H3,(H,23,24)/t19-/m1/s1/f/h23H", "fixed_inchikey": "GTVALCQWCWDFRA-ZRLIBOMZNA-N"}

> <data_format>
sdf

$$$$
