LIG(A-305)
  -OEChem-06042511303D

 35 36  0     0  0  0  0  0  0999 V2000
    8.7439    0.4594   20.9397 O   0  0  0  0  0  0  0  0  0  0  0  0
    8.1108   -0.5756   21.1417 C   0  0  0  0  0  0  0  0  0  0  0  0
    8.5688   -1.6097   22.1456 C   0  0  0  0  0  0  0  0  0  0  0  0
    9.8428   -1.1167   22.7806 C   0  0  0  0  0  0  0  0  0  0  0  0
   11.0698   -1.4157   22.2016 C   0  0  0  0  0  0  0  0  0  0  0  0
   12.2238   -0.9198   22.7616 C   0  0  0  0  0  0  0  0  0  0  0  0
   13.7548   -1.3628   22.0646 Cl  0  0  0  0  0  0  0  0  0  0  0  0
   12.2038   -0.1218   23.8887 C   0  0  0  0  0  0  0  0  0  0  0  0
    9.7988   -0.3297   23.9257 C   0  0  0  0  0  0  0  0  0  0  0  0
   10.9789    0.1472   24.4787 C   0  0  0  0  0  0  0  0  0  0  0  0
   11.0819    0.7942   25.6837 O   0  0  0  0  0  0  0  0  0  0  0  0
    9.9019    0.9482   26.4787 C   0  0  0  0  0  0  0  0  0  0  0  0
    6.9468   -0.8756   20.5346 N   0  0  0  0  0  0  0  0  0  0  0  0
    6.3358   -0.0695   19.5587 C   0  0  0  0  0  0  0  0  0  0  0  0
    5.2409    0.7405   19.9047 C   0  0  0  0  0  0  0  0  0  0  0  0
    4.7199    0.8225   21.3177 C   0  0  0  0  0  0  0  0  0  0  0  0
    4.6989    1.5375   18.9017 C   0  0  0  0  0  0  0  0  0  0  0  0
    5.2619    1.5246   17.6427 C   0  0  0  0  0  0  0  0  0  0  0  0
    6.3199    0.7706   17.3117 N   0  0  0  0  0  0  0  0  0  0  0  0
    6.8368   -0.0185   18.2587 C   0  0  0  0  0  0  0  0  0  0  0  0
    7.7970   -1.7470   22.9172 H   0  0  0  0  0  0  0  0  0  0  0  0
    8.7527   -2.5672   21.6365 H   0  0  0  0  0  0  0  0  0  0  0  0
   11.1171   -2.0338   21.3172 H   0  0  0  0  0  0  0  0  0  0  0  0
   13.1178    0.2816   24.2991 H   0  0  0  0  0  0  0  0  0  0  0  0
    8.8502   -0.0905   24.3831 H   0  0  0  0  0  0  0  0  0  0  0  0
   10.1516    1.4836   27.4066 H   0  0  0  0  0  0  0  0  0  0  0  0
    9.1522    1.5224   25.9146 H   0  0  0  0  0  0  0  0  0  0  0  0
    9.4945   -0.0432   26.7259 H   0  0  0  0  0  0  0  0  0  0  0  0
    6.4882   -1.7254   20.7946 H   0  0  0  0  0  0  0  0  0  0  0  0
    5.5157    1.1909   21.9818 H   0  0  0  0  0  0  0  0  0  0  0  0
    3.8640    1.5126   21.3533 H   0  0  0  0  0  0  0  0  0  0  0  0
    4.3995   -0.1764   21.6488 H   0  0  0  0  0  0  0  0  0  0  0  0
    3.8426    2.1627   19.1077 H   0  0  0  0  0  0  0  0  0  0  0  0
    4.8269    2.1561   16.8822 H   0  0  0  0  0  0  0  0  0  0  0  0
    7.6799   -0.6442   18.0056 H   0  0  0  0  0  0  0  0  0  0  0  0
  1  2  2  0  0  0  0
  2  3  1  0  0  0  0
  2 13  1  0  0  0  0
  3  4  1  0  0  0  0
  3 21  1  0  0  0  0
  3 22  1  0  0  0  0
  4  5  2  0  0  0  0
  4  9  1  0  0  0  0
  5  6  1  0  0  0  0
  5 23  1  0  0  0  0
  6  7  1  0  0  0  0
  6  8  2  0  0  0  0
  8 10  1  0  0  0  0
  8 24  1  0  0  0  0
  9 10  2  0  0  0  0
  9 25  1  0  0  0  0
 10 11  1  0  0  0  0
 11 12  1  0  0  0  0
 12 26  1  0  0  0  0
 12 27  1  0  0  0  0
 12 28  1  0  0  0  0
 13 14  1  0  0  0  0
 13 29  1  0  0  0  0
 14 15  2  0  0  0  0
 14 20  1  0  0  0  0
 15 16  1  0  0  0  0
 15 17  1  0  0  0  0
 16 30  1  0  0  0  0
 16 31  1  0  0  0  0
 16 32  1  0  0  0  0
 17 18  2  0  0  0  0
 17 33  1  0  0  0  0
 18 19  1  0  0  0  0
 18 34  1  0  0  0  0
 19 20  2  0  0  0  0
 20 35  1  0  0  0  0
M  END
> <compound_name>
MAT-POS-c9973a83-1

> <provenance>
{"isomeric_smiles": "Cc1ccncc1NC(=O)Cc2cc(cc(c2)Cl)OC", "inchi": "InChI=1S/C15H15ClN2O2/c1-10-3-4-17-9-14(10)18-15(19)7-11-5-12(16)8-13(6-11)20-2/h3-6,8-9H,7H2,1-2H3,(H,18,19)", "inchi_key": "WXCJKPMYIYFEDR-UHFFFAOYSA-N", "fixed_inchi": "InChI=1/C15H15ClN2O2/c1-10-3-4-17-9-14(10)18-15(19)7-11-5-12(16)8-13(6-11)20-2/h3-6,8-9H,7H2,1-2H3,(H,18,19)/f/h18H", "fixed_inchikey": "WXCJKPMYIYFEDR-GPQMBLKYNA-N"}

> <data_format>
sdf

$$$$
