LIG(A-305)
  -OEChem-06042511373D

 48 51  0     0  0  0  0  0  0999 V2000
    9.2460    1.3154   21.0755 O   0  0  0  0  0  0  0  0  0  0  0  0
    8.9690    0.2945   21.6895 C   0  0  0  0  0  0  0  0  0  0  0  0
    8.2169   -0.8505   21.0096 C   0  0  0  0  0  0  0  0  0  0  0  0
    7.3288   -0.3715   19.9717 N   0  0  0  0  0  0  0  0  0  0  0  0
    6.2059    0.3926   20.0687 C   0  0  0  0  0  0  0  0  0  0  0  0
    5.3990    0.7856   21.1288 C   0  0  0  0  0  0  0  0  0  0  0  0
    4.3090    1.5987   20.8408 C   0  0  0  0  0  0  0  0  0  0  0  0
    4.0369    1.9977   19.5338 C   0  0  0  0  0  0  0  0  0  0  0  0
    4.8518    1.6006   18.4828 C   0  0  0  0  0  0  0  0  0  0  0  0
    5.9478    0.7885   18.7597 C   0  0  0  0  0  0  0  0  0  0  0  0
    6.9237    0.2645   17.9417 N   0  0  0  0  0  0  0  0  0  0  0  0
    7.7467   -0.4266   18.6816 N   0  0  0  0  0  0  0  0  0  0  0  0
    9.3001    0.1155   22.9995 N   0  0  0  0  0  0  0  0  0  0  0  0
    9.7082    1.2785   23.7804 C   0  0  0  0  0  0  0  0  0  0  0  0
   11.0212    1.8434   23.3363 C   0  0  0  0  0  0  0  0  0  0  0  0
   11.0402    3.1424   22.8493 N   0  0  0  0  0  0  0  0  0  0  0  0
   12.2532    3.4623   22.5232 C   0  0  0  0  0  0  0  0  0  0  0  0
   13.4332    2.2533   22.7821 S   0  0  0  0  0  0  0  0  0  0  0  0
   12.2172    1.2233   23.3653 C   0  0  0  0  0  0  0  0  0  0  0  0
    9.1600   -1.1235   23.6856 C   0  0  0  0  0  0  0  0  0  0  0  0
    9.9630   -2.2085   23.3585 C   0  0  0  0  0  0  0  0  0  0  0  0
    9.8609   -3.3875   24.0716 C   0  0  0  0  0  0  0  0  0  0  0  0
    8.2431   -1.2394   24.7176 C   0  0  0  0  0  0  0  0  0  0  0  0
    8.1541   -2.4094   25.4487 C   0  0  0  0  0  0  0  0  0  0  0  0
    8.9640   -3.5064   25.1427 C   0  0  0  0  0  0  0  0  0  0  0  0
    8.8920   -4.6654   25.8787 N   0  0  0  0  0  0  0  0  0  0  0  0
    7.6910   -5.0013   26.6288 C   0  0  0  0  0  0  0  0  0  0  0  0
    9.7329   -5.8025   25.5447 C   0  0  0  0  0  0  0  0  0  0  0  0
    8.9478   -1.5400   20.5621 H   0  0  0  0  0  0  0  0  0  0  0  0
    7.6239   -1.3854   21.7662 H   0  0  0  0  0  0  0  0  0  0  0  0
    5.6108    0.4710   22.1400 H   0  0  0  0  0  0  0  0  0  0  0  0
    3.6633    1.9262   21.6423 H   0  0  0  0  0  0  0  0  0  0  0  0
    3.1800    2.6246   19.3359 H   0  0  0  0  0  0  0  0  0  0  0  0
    4.6400    1.9151   17.4715 H   0  0  0  0  0  0  0  0  0  0  0  0
    8.9381    2.0575   23.6795 H   0  0  0  0  0  0  0  0  0  0  0  0
    9.7925    0.9810   24.8360 H   0  0  0  0  0  0  0  0  0  0  0  0
   12.5022    4.4304   22.1142 H   0  0  0  0  0  0  0  0  0  0  0  0
   12.3790    0.2130   23.7110 H   0  0  0  0  0  0  0  0  0  0  0  0
   10.6688   -2.1305   22.5449 H   0  0  0  0  0  0  0  0  0  0  0  0
   10.4808   -4.2293   23.8002 H   0  0  0  0  0  0  0  0  0  0  0  0
    7.5931   -0.4097   24.9528 H   0  0  0  0  0  0  0  0  0  0  0  0
    7.4508   -2.4763   26.2655 H   0  0  0  0  0  0  0  0  0  0  0  0
    7.8371   -5.9616   27.1450 H   0  0  0  0  0  0  0  0  0  0  0  0
    7.4894   -4.2138   27.3698 H   0  0  0  0  0  0  0  0  0  0  0  0
    6.8384   -5.0823   25.9386 H   0  0  0  0  0  0  0  0  0  0  0  0
    9.5302   -6.6270   26.2439 H   0  0  0  0  0  0  0  0  0  0  0  0
    9.5146   -6.1307   24.5177 H   0  0  0  0  0  0  0  0  0  0  0  0
   10.7908   -5.5104   25.6192 H   0  0  0  0  0  0  0  0  0  0  0  0
  1  2  2  0  0  0  0
  2  3  1  0  0  0  0
  2 13  1  0  0  0  0
  3  4  1  0  0  0  0
  3 29  1  0  0  0  0
  3 30  1  0  0  0  0
  4  5  1  0  0  0  0
  4 12  1  0  0  0  0
  5  6  2  0  0  0  0
  5 10  1  0  0  0  0
  6  7  1  0  0  0  0
  6 31  1  0  0  0  0
  7  8  2  0  0  0  0
  7 32  1  0  0  0  0
  8  9  1  0  0  0  0
  8 33  1  0  0  0  0
  9 10  2  0  0  0  0
  9 34  1  0  0  0  0
 10 11  1  0  0  0  0
 11 12  2  0  0  0  0
 13 14  1  0  0  0  0
 13 20  1  0  0  0  0
 14 15  1  0  0  0  0
 14 35  1  0  0  0  0
 14 36  1  0  0  0  0
 15 16  1  0  0  0  0
 15 19  2  0  0  0  0
 16 17  2  0  0  0  0
 17 18  1  0  0  0  0
 17 37  1  0  0  0  0
 18 19  1  0  0  0  0
 19 38  1  0  0  0  0
 20 21  2  0  0  0  0
 20 23  1  0  0  0  0
 21 22  1  0  0  0  0
 21 39  1  0  0  0  0
 22 25  2  0  0  0  0
 22 40  1  0  0  0  0
 23 24  2  0  0  0  0
 23 41  1  0  0  0  0
 24 25  1  0  0  0  0
 24 42  1  0  0  0  0
 25 26  1  0  0  0  0
 26 27  1  0  0  0  0
 26 28  1  0  0  0  0
 27 43  1  0  0  0  0
 27 44  1  0  0  0  0
 27 45  1  0  0  0  0
 28 46  1  0  0  0  0
 28 47  1  0  0  0  0
 28 48  1  0  0  0  0
M  END
> <compound_name>
ALP-POS-87c86d55-1

> <provenance>
{"isomeric_smiles": "CN(C)c1ccc(cc1)N(Cc2cscn2)C(=O)Cn3c4ccccc4nn3", "inchi": "InChI=1S/C20H20N6OS/c1-24(2)16-7-9-17(10-8-16)25(11-15-13-28-14-21-15)20(27)12-26-19-6-4-3-5-18(19)22-23-26/h3-10,13-14H,11-12H2,1-2H3", "inchi_key": "BZTBYCRNDCQTCD-UHFFFAOYSA-N", "fixed_inchi": "InChI=1/C20H20N6OS/c1-24(2)16-7-9-17(10-8-16)25(11-15-13-28-14-21-15)20(27)12-26-19-6-4-3-5-18(19)22-23-26/h3-10,13-14H,11-12H2,1-2H3", "fixed_inchikey": "BZTBYCRNDCQTCD-UHFFFAOYNA-N"}

> <data_format>
sdf

$$$$
