LIG(A-305)
  -OEChem-06042511333D

 40 41  0     1  0  0  0  0  0999 V2000
   13.9481   -1.8456   21.3650 Cl  0  0  0  0  0  0  0  0  0  0  0  0
   12.7511   -0.8876   22.1900 C   0  0  0  0  0  0  0  0  0  0  0  0
   13.1390    0.2743   22.8251 C   0  0  0  0  0  0  0  0  0  0  0  0
   12.1770    1.0223   23.4851 C   0  0  0  0  0  0  0  0  0  0  0  0
   10.8510    0.6163   23.4840 C   0  0  0  0  0  0  0  0  0  0  0  0
   11.4341   -1.3046   22.1759 C   0  0  0  0  0  0  0  0  0  0  0  0
   10.4620   -0.5357   22.8079 C   0  0  0  0  0  0  0  0  0  0  0  0
    8.9921   -0.8917   22.6409 C   0  0  1  0  0  0  0  0  0  0  0  0
    8.2000   -0.6088   23.9269 C   0  0  0  0  0  0  0  0  0  0  0  0
    8.4420   -1.6139   25.0298 C   0  0  0  0  0  0  0  0  0  0  0  0
    8.0849   -1.0620   26.3718 C   0  0  0  0  0  0  0  0  0  0  0  0
    8.4121   -0.0696   21.4899 C   0  0  0  0  0  0  0  0  0  0  0  0
    8.8741    1.0194   21.1720 O   0  0  0  0  0  0  0  0  0  0  0  0
    7.3221   -0.6096   20.8998 N   0  0  0  0  0  0  0  0  0  0  0  0
    6.5881    0.0195   19.8659 C   0  0  0  0  0  0  0  0  0  0  0  0
    5.4311    0.7555   20.1739 C   0  0  0  0  0  0  0  0  0  0  0  0
    4.9551    0.9424   21.5929 C   0  0  0  0  0  0  0  0  0  0  0  0
    4.7742    1.3816   19.1209 C   0  0  0  0  0  0  0  0  0  0  0  0
    5.2842    1.2837   17.8429 C   0  0  0  0  0  0  0  0  0  0  0  0
    6.3892    0.5947   17.5399 N   0  0  0  0  0  0  0  0  0  0  0  0
    7.0212   -0.0234   18.5419 C   0  0  0  0  0  0  0  0  0  0  0  0
   14.1704    0.5941   22.8082 H   0  0  0  0  0  0  0  0  0  0  0  0
   12.4615    1.9262   24.0031 H   0  0  0  0  0  0  0  0  0  0  0  0
   10.1128    1.2003   24.0135 H   0  0  0  0  0  0  0  0  0  0  0  0
   11.1606   -2.2226   21.6769 H   0  0  0  0  0  0  0  0  0  0  0  0
    8.9059   -1.9608   22.3968 H   0  0  0  0  0  0  0  0  0  0  0  0
    8.4853    0.3870   24.2971 H   0  0  0  0  0  0  0  0  0  0  0  0
    7.1277   -0.6154   23.6815 H   0  0  0  0  0  0  0  0  0  0  0  0
    7.8297   -2.5074   24.8379 H   0  0  0  0  0  0  0  0  0  0  0  0
    9.5063   -1.8920   25.0309 H   0  0  0  0  0  0  0  0  0  0  0  0
    8.2751   -1.8222   27.1439 H   0  0  0  0  0  0  0  0  0  0  0  0
    8.6966   -0.1709   26.5762 H   0  0  0  0  0  0  0  0  0  0  0  0
    7.0201   -0.7863   26.3833 H   0  0  0  0  0  0  0  0  0  0  0  0
    7.0156   -1.5085   21.2130 H   0  0  0  0  0  0  0  0  0  0  0  0
    5.7336    1.4551   22.1769 H   0  0  0  0  0  0  0  0  0  0  0  0
    4.0368    1.5481   21.5947 H   0  0  0  0  0  0  0  0  0  0  0  0
    4.7472   -0.0399   22.0421 H   0  0  0  0  0  0  0  0  0  0  0  0
    3.8689    1.9418   19.3024 H   0  0  0  0  0  0  0  0  0  0  0  0
    4.7630    1.7907   17.0443 H   0  0  0  0  0  0  0  0  0  0  0  0
    7.9145   -0.5858   18.3137 H   0  0  0  0  0  0  0  0  0  0  0  0
  1  2  1  0  0  0  0
  2  3  2  0  0  0  0
  2  6  1  0  0  0  0
  3  4  1  0  0  0  0
  3 22  1  0  0  0  0
  4  5  2  0  0  0  0
  4 23  1  0  0  0  0
  5  7  1  0  0  0  0
  5 24  1  0  0  0  0
  6  7  2  0  0  0  0
  6 25  1  0  0  0  0
  7  8  1  0  0  0  0
  8  9  1  0  0  0  0
  8 12  1  0  0  0  0
  8 26  1  0  0  0  0
  9 10  1  0  0  0  0
  9 27  1  0  0  0  0
  9 28  1  0  0  0  0
 10 11  1  0  0  0  0
 10 29  1  0  0  0  0
 10 30  1  0  0  0  0
 11 31  1  0  0  0  0
 11 32  1  0  0  0  0
 11 33  1  0  0  0  0
 12 13  2  0  0  0  0
 12 14  1  0  0  0  0
 14 15  1  0  0  0  0
 14 34  1  0  0  0  0
 15 16  2  0  0  0  0
 15 21  1  0  0  0  0
 16 17  1  0  0  0  0
 16 18  1  0  0  0  0
 17 35  1  0  0  0  0
 17 36  1  0  0  0  0
 17 37  1  0  0  0  0
 18 19  2  0  0  0  0
 18 38  1  0  0  0  0
 19 20  1  0  0  0  0
 19 39  1  0  0  0  0
 20 21  2  0  0  0  0
 21 40  1  0  0  0  0
M  END
> <compound_name>
JAN-GHE-83b26c96-8

> <provenance>
{"isomeric_smiles": "CCC[C@H](c1cccc(c1)Cl)C(=O)Nc2cnccc2C", "inchi": "InChI=1S/C17H19ClN2O/c1-3-5-15(13-6-4-7-14(18)10-13)17(21)20-16-11-19-9-8-12(16)2/h4,6-11,15H,3,5H2,1-2H3,(H,20,21)/t15-/m1/s1", "inchi_key": "QJMYJFPUHDEEBX-OAHLLOKOSA-N", "fixed_inchi": "InChI=1/C17H19ClN2O/c1-3-5-15(13-6-4-7-14(18)10-13)17(21)20-16-11-19-9-8-12(16)2/h4,6-11,15H,3,5H2,1-2H3,(H,20,21)/t15-/m1/s1/f/h20H", "fixed_inchikey": "QJMYJFPUHDEEBX-URUYPZNPNA-N"}

> <data_format>
sdf

$$$$
