LIG(A-305)
  -OEChem-06042511343D

 40 42  0     1  0  0  0  0  0999 V2000
    6.6030    0.4733   17.5558 N   0  0  0  0  0  0  0  0  0  0  0  0
   12.0934    4.6584   22.9441 N   0  0  0  0  0  0  0  0  0  0  0  0
    5.7224    0.5643   20.2249 C   0  0  0  0  0  0  0  0  0  0  0  0
   13.6627    0.3352   22.5478 C   0  0  0  0  0  0  0  0  0  0  0  0
   12.8892    2.4122   23.5439 O   0  0  0  0  0  0  0  0  0  0  0  0
   10.9986   -0.5185   22.5751 C   0  0  0  0  0  0  0  0  0  0  0  0
    4.9993    1.1645   19.1981 C   0  0  0  0  0  0  0  0  0  0  0  0
   11.3559    0.6915   23.1611 C   0  0  0  0  0  0  0  0  0  0  0  0
    8.8125   -0.0721   21.4115 C   0  0  0  0  0  0  0  0  0  0  0  0
    6.9133   -0.1008   19.8717 C   0  0  0  0  0  0  0  0  0  0  0  0
    7.2991   -0.1208   18.5317 C   0  0  0  0  0  0  0  0  0  0  0  0
   12.6471    3.3693   22.4950 C   0  0  2  0  0  0  0  0  0  0  0  0
   13.3135   -0.8858   21.9968 C   0  0  0  0  0  0  0  0  0  0  0  0
   11.9924   -1.3066   22.0109 C   0  0  0  0  0  0  0  0  0  0  0  0
   12.6729    1.1233   23.1139 C   0  0  0  0  0  0  0  0  0  0  0  0
   13.9762    4.0991   22.2768 C   0  0  0  0  0  0  0  0  0  0  0  0
    5.2696    0.6904   21.6560 C   0  0  0  0  0  0  0  0  0  0  0  0
    7.7233   -0.6660   20.8816 N   0  0  0  0  0  0  0  0  0  0  0  0
    9.1916    1.0488   21.0874 O   0  0  0  0  0  0  0  0  0  0  0  0
   13.3796    6.5662   22.4620 O   0  0  0  0  0  0  0  0  0  0  0  0
    9.5395   -0.9013   22.4533 C   0  0  0  0  0  0  0  0  0  0  0  0
    5.4711    1.0985   17.9020 C   0  0  0  0  0  0  0  0  0  0  0  0
   13.1724    5.3592   22.5500 C   0  0  0  0  0  0  0  0  0  0  0  0
   11.2321    4.9174   23.3813 H   0  0  0  0  0  0  0  0  0  0  0  0
   14.6900    0.6683   22.5367 H   0  0  0  0  0  0  0  0  0  0  0  0
    4.0745    1.6789   19.4138 H   0  0  0  0  0  0  0  0  0  0  0  0
   10.6073    1.2948   23.6530 H   0  0  0  0  0  0  0  0  0  0  0  0
    8.2069   -0.6430   18.2680 H   0  0  0  0  0  0  0  0  0  0  0  0
   12.2008    2.9653   21.5744 H   0  0  0  0  0  0  0  0  0  0  0  0
   14.0730   -1.5131   21.5540 H   0  0  0  0  0  0  0  0  0  0  0  0
   11.7329   -2.2609   21.5769 H   0  0  0  0  0  0  0  0  0  0  0  0
   14.7609    3.8746   23.0143 H   0  0  0  0  0  0  0  0  0  0  0  0
   14.3933    4.0200   21.2621 H   0  0  0  0  0  0  0  0  0  0  0  0
    4.3495    1.2916   21.6984 H   0  0  0  0  0  0  0  0  0  0  0  0
    5.0728   -0.3105   22.0676 H   0  0  0  0  0  0  0  0  0  0  0  0
    6.0563    1.1819   22.2474 H   0  0  0  0  0  0  0  0  0  0  0  0
    7.4718   -1.5696   21.2280 H   0  0  0  0  0  0  0  0  0  0  0  0
    9.0519   -0.7516   23.4279 H   0  0  0  0  0  0  0  0  0  0  0  0
    9.4745   -1.9620   22.1698 H   0  0  0  0  0  0  0  0  0  0  0  0
    4.8949    1.5779   17.1244 H   0  0  0  0  0  0  0  0  0  0  0  0
  1 11  1  0  0  0  0
  1 22  2  0  0  0  0
  2 12  1  0  0  0  0
  2 23  1  0  0  0  0
  2 24  1  0  0  0  0
  3  7  2  0  0  0  0
  3 10  1  0  0  0  0
  3 17  1  0  0  0  0
  4 13  1  0  0  0  0
  4 15  2  0  0  0  0
  4 25  1  0  0  0  0
  5 12  1  0  0  0  0
  5 15  1  0  0  0  0
  6  8  2  0  0  0  0
  6 14  1  0  0  0  0
  6 21  1  0  0  0  0
  7 22  1  0  0  0  0
  7 26  1  0  0  0  0
  8 15  1  0  0  0  0
  8 27  1  0  0  0  0
  9 18  1  0  0  0  0
  9 19  2  0  0  0  0
  9 21  1  0  0  0  0
 10 11  2  0  0  0  0
 10 18  1  0  0  0  0
 11 28  1  0  0  0  0
 12 16  1  0  0  0  0
 12 29  1  0  0  0  0
 13 14  2  0  0  0  0
 13 30  1  0  0  0  0
 14 31  1  0  0  0  0
 16 23  1  0  0  0  0
 16 32  1  0  0  0  0
 16 33  1  0  0  0  0
 17 34  1  0  0  0  0
 17 35  1  0  0  0  0
 17 36  1  0  0  0  0
 18 37  1  0  0  0  0
 20 23  2  0  0  0  0
 21 38  1  0  0  0  0
 21 39  1  0  0  0  0
 22 40  1  0  0  0  0
M  END
> <compound_name>
BRU-LEF-c49414a7-1

> <provenance>
{"isomeric_smiles": "Cc1ccncc1NC(=O)Cc2cccc(c2)O[C@@H]3CC(=O)N3", "inchi": "InChI=1S/C17H17N3O3/c1-11-5-6-18-10-14(11)19-15(21)8-12-3-2-4-13(7-12)23-17-9-16(22)20-17/h2-7,10,17H,8-9H2,1H3,(H,19,21)(H,20,22)/t17-/m1/s1", "inchi_key": "OWPHHWQTUZCDRN-QGZVFWFLSA-N", "fixed_inchi": "InChI=1/C17H17N3O3/c1-11-5-6-18-10-14(11)19-15(21)8-12-3-2-4-13(7-12)23-17-9-16(22)20-17/h2-7,10,17H,8-9H2,1H3,(H,19,21)(H,20,22)/t17-/m1/s1/f/h19-20H", "fixed_inchikey": "OWPHHWQTUZCDRN-DKVNHYBXNA-N"}

> <data_format>
sdf

$$$$
