LIG(A-305)
  -OEChem-06042511313D

 30 31  0     0  0  0  0  0  0999 V2000
   13.8928   -1.8572   21.4553 Cl  0  0  0  0  0  0  0  0  0  0  0  0
   12.6939   -1.0223   22.4064 C   0  0  0  0  0  0  0  0  0  0  0  0
   13.1009   -0.1365   23.3855 C   0  0  0  0  0  0  0  0  0  0  0  0
   12.1399    0.4184   24.2186 C   0  0  0  0  0  0  0  0  0  0  0  0
   10.7969    0.1405   24.0155 C   0  0  0  0  0  0  0  0  0  0  0  0
   11.3589   -1.3163   22.2013 C   0  0  0  0  0  0  0  0  0  0  0  0
   10.3909   -0.7033   22.9894 C   0  0  0  0  0  0  0  0  0  0  0  0
    8.9269   -0.8943   22.6724 C   0  0  0  0  0  0  0  0  0  0  0  0
    8.4729   -0.0551   21.4935 C   0  0  0  0  0  0  0  0  0  0  0  0
    9.0709    0.9639   21.1326 O   0  0  0  0  0  0  0  0  0  0  0  0
    7.3309   -0.4850   20.9254 N   0  0  0  0  0  0  0  0  0  0  0  0
    6.6519    0.1312   19.8745 C   0  0  0  0  0  0  0  0  0  0  0  0
    5.4439    0.8312   20.1176 C   0  0  0  0  0  0  0  0  0  0  0  0
    4.8449    0.9710   21.4946 C   0  0  0  0  0  0  0  0  0  0  0  0
    7.2339    0.1303   18.6755 N   0  0  0  0  0  0  0  0  0  0  0  0
    6.6829    0.7925   17.6396 N   0  0  0  0  0  0  0  0  0  0  0  0
    5.5430    1.4575   17.8127 C   0  0  0  0  0  0  0  0  0  0  0  0
    4.8940    1.4943   19.0317 C   0  0  0  0  0  0  0  0  0  0  0  0
   14.1441    0.1185   23.4999 H   0  0  0  0  0  0  0  0  0  0  0  0
   12.4389    1.0686   25.0274 H   0  0  0  0  0  0  0  0  0  0  0  0
   10.0566    0.5859   24.6636 H   0  0  0  0  0  0  0  0  0  0  0  0
   11.0691   -2.0181   21.4332 H   0  0  0  0  0  0  0  0  0  0  0  0
    8.7521   -1.9548   22.4383 H   0  0  0  0  0  0  0  0  0  0  0  0
    8.3351   -0.6113   23.5553 H   0  0  0  0  0  0  0  0  0  0  0  0
    6.9316   -1.3255   21.2915 H   0  0  0  0  0  0  0  0  0  0  0  0
    5.5566    1.4897   22.1537 H   0  0  0  0  0  0  0  0  0  0  0  0
    3.9131    1.5522   21.4317 H   0  0  0  0  0  0  0  0  0  0  0  0
    4.6277   -0.0270   21.9029 H   0  0  0  0  0  0  0  0  0  0  0  0
    5.1121    1.9845   16.9742 H   0  0  0  0  0  0  0  0  0  0  0  0
    3.9654    2.0356   19.1377 H   0  0  0  0  0  0  0  0  0  0  0  0
  1  2  1  0  0  0  0
  2  3  2  0  0  0  0
  2  6  1  0  0  0  0
  3  4  1  0  0  0  0
  3 19  1  0  0  0  0
  4  5  2  0  0  0  0
  4 20  1  0  0  0  0
  5  7  1  0  0  0  0
  5 21  1  0  0  0  0
  6  7  2  0  0  0  0
  6 22  1  0  0  0  0
  7  8  1  0  0  0  0
  8  9  1  0  0  0  0
  8 23  1  0  0  0  0
  8 24  1  0  0  0  0
  9 10  2  0  0  0  0
  9 11  1  0  0  0  0
 11 12  1  0  0  0  0
 11 25  1  0  0  0  0
 12 13  2  0  0  0  0
 12 15  1  0  0  0  0
 13 14  1  0  0  0  0
 13 18  1  0  0  0  0
 14 26  1  0  0  0  0
 14 27  1  0  0  0  0
 14 28  1  0  0  0  0
 15 16  2  0  0  0  0
 16 17  1  0  0  0  0
 17 18  2  0  0  0  0
 17 29  1  0  0  0  0
 18 30  1  0  0  0  0
M  END
> <compound_name>
EDG-MED-0da5ad92-15

> <provenance>
{"isomeric_smiles": "Cc1ccnnc1NC(=O)Cc2cccc(c2)Cl", "inchi": "InChI=1S/C13H12ClN3O/c1-9-5-6-15-17-13(9)16-12(18)8-10-3-2-4-11(14)7-10/h2-7H,8H2,1H3,(H,16,17,18)", "inchi_key": "ZNGNXXLXHHJCCJ-UHFFFAOYSA-N", "fixed_inchi": "InChI=1/C13H12ClN3O/c1-9-5-6-15-17-13(9)16-12(18)8-10-3-2-4-11(14)7-10/h2-7H,8H2,1H3,(H,16,17,18)/f/h16H", "fixed_inchikey": "ZNGNXXLXHHJCCJ-WYUMXYHSNA-N"}

> <data_format>
sdf

$$$$
