LIG(A-305)
  -OEChem-06042511363D

 31 33  0     0  0  0  0  0  0999 V2000
    8.9322    0.8303   21.1015 O   0  0  0  0  0  0  0  0  0  0  0  0
    8.3742   -0.2197   21.4155 C   0  0  0  0  0  0  0  0  0  0  0  0
    8.8622   -1.0637   22.5805 C   0  0  0  0  0  0  0  0  0  0  0  0
   10.3242   -0.7937   22.8585 C   0  0  0  0  0  0  0  0  0  0  0  0
   10.7102    0.1373   23.8155 C   0  0  0  0  0  0  0  0  0  0  0  0
   12.0452    0.4813   23.9725 C   0  0  0  0  0  0  0  0  0  0  0  0
   13.0152   -0.1027   23.1735 C   0  0  0  0  0  0  0  0  0  0  0  0
   11.3042   -1.4037   22.0845 C   0  0  0  0  0  0  0  0  0  0  0  0
   12.6282   -1.0487   22.2505 C   0  0  0  0  0  0  0  0  0  0  0  0
   13.8422   -1.8457   21.2825 Cl  0  0  0  0  0  0  0  0  0  0  0  0
    7.3002   -0.7127   20.7665 N   0  0  0  0  0  0  0  0  0  0  0  0
    6.6512   -0.0457   19.7005 C   0  0  0  0  0  0  0  0  0  0  0  0
    5.5132    0.7243   19.9525 C   0  0  0  0  0  0  0  0  0  0  0  0
    4.8702    1.0173   21.1285 N   0  0  0  0  0  0  0  0  0  0  0  0
    3.8692    1.8653   20.8085 C   0  0  0  0  0  0  0  0  0  0  0  0
    3.8062    2.1563   19.5225 N   0  0  0  0  0  0  0  0  0  0  0  0
    4.8552    1.4373   18.9455 C   0  0  0  0  0  0  0  0  0  0  0  0
    5.3982    1.3153   17.6745 C   0  0  0  0  0  0  0  0  0  0  0  0
    6.4932    0.5993   17.3865 N   0  0  0  0  0  0  0  0  0  0  0  0
    7.0962   -0.0587   18.3845 C   0  0  0  0  0  0  0  0  0  0  0  0
    8.2727   -0.8186   23.4763 H   0  0  0  0  0  0  0  0  0  0  0  0
    8.7315   -2.1281   22.3354 H   0  0  0  0  0  0  0  0  0  0  0  0
    9.9626    0.5982   24.4440 H   0  0  0  0  0  0  0  0  0  0  0  0
   12.3294    1.2069   24.7202 H   0  0  0  0  0  0  0  0  0  0  0  0
   14.0533    0.1782   23.2726 H   0  0  0  0  0  0  0  0  0  0  0  0
   11.0312   -2.1527   21.3559 H   0  0  0  0  0  0  0  0  0  0  0  0
    6.9417   -1.6005   21.0550 H   0  0  0  0  0  0  0  0  0  0  0  0
    5.0971    0.6723   22.0393 H   0  0  0  0  0  0  0  0  0  0  0  0
    3.1827    2.2687   21.5382 H   0  0  0  0  0  0  0  0  0  0  0  0
    4.9056    1.8316   16.8639 H   0  0  0  0  0  0  0  0  0  0  0  0
    7.9807   -0.6335   18.1528 H   0  0  0  0  0  0  0  0  0  0  0  0
  1  2  2  0  0  0  0
  2  3  1  0  0  0  0
  2 11  1  0  0  0  0
  3  4  1  0  0  0  0
  3 21  1  0  0  0  0
  3 22  1  0  0  0  0
  4  5  2  0  0  0  0
  4  8  1  0  0  0  0
  5  6  1  0  0  0  0
  5 23  1  0  0  0  0
  6  7  2  0  0  0  0
  6 24  1  0  0  0  0
  7  9  1  0  0  0  0
  7 25  1  0  0  0  0
  8  9  2  0  0  0  0
  8 26  1  0  0  0  0
  9 10  1  0  0  0  0
 11 12  1  0  0  0  0
 11 27  1  0  0  0  0
 12 13  2  0  0  0  0
 12 20  1  0  0  0  0
 13 14  1  0  0  0  0
 13 17  1  0  0  0  0
 14 15  1  0  0  0  0
 14 28  1  0  0  0  0
 15 16  2  0  0  0  0
 15 29  1  0  0  0  0
 16 17  1  0  0  0  0
 17 18  2  0  0  0  0
 18 19  1  0  0  0  0
 18 30  1  0  0  0  0
 19 20  2  0  0  0  0
 20 31  1  0  0  0  0
M  END
> <compound_name>
MAT-POS-f7918075-8

> <provenance>
{"isomeric_smiles": "c1cc(cc(c1)Cl)CC(=O)Nc2cncc3c2[nH]cn3", "inchi": "InChI=1S/C14H11ClN4O/c15-10-3-1-2-9(4-10)5-13(20)19-12-7-16-6-11-14(12)18-8-17-11/h1-4,6-8H,5H2,(H,17,18)(H,19,20)", "inchi_key": "NXBRVTFHRPPFLN-UHFFFAOYSA-N", "fixed_inchi": "InChI=1/C14H11ClN4O/c15-10-3-1-2-9(4-10)5-13(20)19-12-7-16-6-11-14(12)18-8-17-11/h1-4,6-8H,5H2,(H,17,18)(H,19,20)/f/h18-19H", "fixed_inchikey": "NXBRVTFHRPPFLN-VEWCPZSHNA-N"}

> <data_format>
sdf

$$$$
