LIG(A-305)
  -OEChem-06042511313D

 39 41  0     0  0  0  0  0  0999 V2000
    9.6820    0.8321   20.9398 O   0  0  0  0  0  0  0  0  0  0  0  0
    9.0758   -0.1468   21.3629 C   0  0  0  0  0  0  0  0  0  0  0  0
    7.7557   -0.3415   21.1750 N   0  0  0  0  0  0  0  0  0  0  0  0
    6.9647   -0.0243   20.0472 C   0  0  0  0  0  0  0  0  0  0  0  0
    7.4945    0.0826   18.7591 C   0  0  0  0  0  0  0  0  0  0  0  0
    6.8325    0.5948   17.7152 N   0  0  0  0  0  0  0  0  0  0  0  0
    5.5916    1.0320   17.9394 C   0  0  0  0  0  0  0  0  0  0  0  0
    4.9748    0.9771   19.1734 C   0  0  0  0  0  0  0  0  0  0  0  0
    5.6548    0.4380   20.2613 C   0  0  0  0  0  0  0  0  0  0  0  0
    5.0210    0.4280   21.6284 C   0  0  0  0  0  0  0  0  0  0  0  0
    9.7697   -1.1749   22.2368 C   0  0  0  0  0  0  0  0  0  0  0  0
    8.9678   -1.6148   23.3629 N   0  0  0  0  0  0  0  0  0  0  0  0
    9.1956   -2.7639   24.0688 C   0  0  0  0  0  0  0  0  0  0  0  0
    8.2747   -3.1707   25.0839 C   0  0  0  0  0  0  0  0  0  0  0  0
    7.0828   -2.4655   25.3911 C   0  0  0  0  0  0  0  0  0  0  0  0
    6.2319   -2.9203   26.3542 C   0  0  0  0  0  0  0  0  0  0  0  0
    6.5167   -4.0824   27.0581 C   0  0  0  0  0  0  0  0  0  0  0  0
    7.6546   -4.7936   26.7999 C   0  0  0  0  0  0  0  0  0  0  0  0
    8.5575   -4.3598   25.8028 C   0  0  0  0  0  0  0  0  0  0  0  0
    9.6633   -5.1280   25.5487 N   0  3  0  0  0  0  0  0  0  0  0  0
   10.4813   -4.7081   24.5996 C   0  0  0  0  0  0  0  0  0  0  0  0
   10.3004   -3.5591   23.8486 C   0  0  0  0  0  0  0  0  0  0  0  0
    7.2694   -0.7686   21.9373 H   0  0  0  0  0  0  0  0  0  0  0  0
    8.5020   -0.2703   18.5955 H   0  0  0  0  0  0  0  0  0  0  0  0
    5.0402    1.4514   17.1108 H   0  0  0  0  0  0  0  0  0  0  0  0
    3.9687    1.3510   19.2939 H   0  0  0  0  0  0  0  0  0  0  0  0
    5.6165    1.0490   22.3138 H   0  0  0  0  0  0  0  0  0  0  0  0
    3.9998    0.8315   21.5619 H   0  0  0  0  0  0  0  0  0  0  0  0
    4.9835   -0.6039   22.0076 H   0  0  0  0  0  0  0  0  0  0  0  0
   10.0109   -2.0517   21.6178 H   0  0  0  0  0  0  0  0  0  0  0  0
   10.6994   -0.7322   22.6236 H   0  0  0  0  0  0  0  0  0  0  0  0
    8.6011   -0.8663   23.9154 H   0  0  0  0  0  0  0  0  0  0  0  0
    6.8468   -1.5577   24.8558 H   0  0  0  0  0  0  0  0  0  0  0  0
    5.3276   -2.3714   26.5715 H   0  0  0  0  0  0  0  0  0  0  0  0
    5.8316   -4.4281   27.8180 H   0  0  0  0  0  0  0  0  0  0  0  0
    7.8651   -5.6922   27.3609 H   0  0  0  0  0  0  0  0  0  0  0  0
    9.8434   -5.9690   26.0588 H   0  0  0  0  0  0  0  0  0  0  0  0
   11.3568   -5.3063   24.3942 H   0  0  0  0  0  0  0  0  0  0  0  0
   11.0223   -3.2865   23.0930 H   0  0  0  0  0  0  0  0  0  0  0  0
  1  2  2  0  0  0  0
  2  3  1  0  0  0  0
  2 11  1  0  0  0  0
  3  4  1  0  0  0  0
  4  5  2  0  0  0  0
  4  9  1  0  0  0  0
  5  6  1  0  0  0  0
  6  7  2  0  0  0  0
  7  8  1  0  0  0  0
  8  9  2  0  0  0  0
  9 10  1  0  0  0  0
 11 12  1  0  0  0  0
 12 13  1  0  0  0  0
 13 14  2  0  0  0  0
 13 22  1  0  0  0  0
 14 15  1  0  0  0  0
 14 19  1  0  0  0  0
 15 16  2  0  0  0  0
 16 17  1  0  0  0  0
 17 18  2  0  0  0  0
 18 19  1  0  0  0  0
 19 20  2  0  0  0  0
 20 21  1  0  0  0  0
 21 22  2  0  0  0  0
  3 23  1  0  0  0  0
  5 24  1  0  0  0  0
  7 25  1  0  0  0  0
  8 26  1  0  0  0  0
 10 27  1  0  0  0  0
 10 28  1  0  0  0  0
 10 29  1  0  0  0  0
 11 30  1  0  0  0  0
 11 31  1  0  0  0  0
 12 32  1  0  0  0  0
 15 33  1  0  0  0  0
 16 34  1  0  0  0  0
 17 35  1  0  0  0  0
 18 36  1  0  0  0  0
 20 37  1  0  0  0  0
 21 38  1  0  0  0  0
 22 39  1  0  0  0  0
M  CHG  1  20   1
M  END
> <compound_name>
GAB-REV-70cc3ca5-4

> <provenance>
{"isomeric_smiles": "Cc1ccncc1NC(=O)CNc2ccnc3c2cccc3", "inchi": "InChI=1S/C17H16N4O/c1-12-6-8-18-10-16(12)21-17(22)11-20-15-7-9-19-14-5-3-2-4-13(14)15/h2-10H,11H2,1H3,(H,19,20)(H,21,22)", "inchi_key": "OZRCAPIRQWCXDS-UHFFFAOYSA-N", "fixed_inchi": "InChI=1/C17H16N4O/c1-12-6-8-18-10-16(12)21-17(22)11-20-15-7-9-19-14-5-3-2-4-13(14)15/h2-10H,11H2,1H3,(H,19,20)(H,21,22)/f/h20-21H", "fixed_inchikey": "OZRCAPIRQWCXDS-BDGWVKIONA-N"}

> <data_format>
sdf

$$$$
