LIG(A-305)
  -OEChem-06042511323D

 37 39  0     0  0  0  0  0  0999 V2000
    6.7548    0.5181   17.5930 N   0  0  0  0  0  0  0  0  0  0  0  0
    5.6341    0.6721   20.1661 C   0  0  0  0  0  0  0  0  0  0  0  0
   10.5463   -0.4819   22.9577 C   0  0  0  0  0  0  0  0  0  0  0  0
    6.7184   -2.5299   24.5360 O   0  0  0  0  0  0  0  0  0  0  0  0
    8.2014   -0.5379   24.1759 C   0  0  0  0  0  0  0  0  0  0  0  0
    5.0360    1.2911   19.0751 C   0  0  0  0  0  0  0  0  0  0  0  0
   11.4472   -1.1859   22.1656 C   0  0  0  0  0  0  0  0  0  0  0  0
    8.5702   -0.1249   21.5648 C   0  0  0  0  0  0  0  0  0  0  0  0
    6.8140   -0.0599   19.9240 C   0  0  0  0  0  0  0  0  0  0  0  0
    7.3259   -0.1079   18.6279 C   0  0  0  0  0  0  0  0  0  0  0  0
   12.3734    0.8450   23.8165 C   0  0  0  0  0  0  0  0  0  0  0  0
    8.6813   -2.3229   22.9868 C   0  0  0  0  0  0  0  0  0  0  0  0
    7.6444   -1.9409   24.0269 C   0  0  0  0  0  0  0  0  0  0  0  0
   11.0214    0.5300   23.7876 C   0  0  0  0  0  0  0  0  0  0  0  0
   13.2703    0.1450   23.0224 C   0  0  0  0  0  0  0  0  0  0  0  0
    5.0762    0.8531   21.5561 C   0  0  0  0  0  0  0  0  0  0  0  0
    7.4781   -0.6759   21.0049 N   0  0  0  0  0  0  0  0  0  0  0  0
    9.1371    0.8611   21.1068 O   0  0  0  0  0  0  0  0  0  0  0  0
    9.0543   -0.7879   22.8668 C   0  0  0  0  0  0  0  0  0  0  0  0
    5.6259    1.1971   17.8281 C   0  0  0  0  0  0  0  0  0  0  0  0
   12.7892   -0.8680   22.2135 C   0  0  0  0  0  0  0  0  0  0  0  0
   13.9041   -1.7980   21.2564 Cl  0  0  0  0  0  0  0  0  0  0  0  0
    7.4517    0.2620   24.0854 H   0  0  0  0  0  0  0  0  0  0  0  0
    8.7990   -0.3791   25.0856 H   0  0  0  0  0  0  0  0  0  0  0  0
    4.1158    1.8424   19.2005 H   0  0  0  0  0  0  0  0  0  0  0  0
   11.0987   -1.9763   21.5173 H   0  0  0  0  0  0  0  0  0  0  0  0
    8.2263   -0.6776   18.4513 H   0  0  0  0  0  0  0  0  0  0  0  0
   12.7279    1.6373   24.4591 H   0  0  0  0  0  0  0  0  0  0  0  0
    9.4932   -2.9612   23.3653 H   0  0  0  0  0  0  0  0  0  0  0  0
    8.2655   -2.7643   22.0690 H   0  0  0  0  0  0  0  0  0  0  0  0
   10.3316    1.0752   24.4149 H   0  0  0  0  0  0  0  0  0  0  0  0
   14.3229    0.3864   23.0359 H   0  0  0  0  0  0  0  0  0  0  0  0
    4.1935    1.5083   21.5151 H   0  0  0  0  0  0  0  0  0  0  0  0
    4.7871   -0.1261   21.9654 H   0  0  0  0  0  0  0  0  0  0  0  0
    5.8414    1.3089   22.2017 H   0  0  0  0  0  0  0  0  0  0  0  0
    7.1293   -1.5419   21.3632 H   0  0  0  0  0  0  0  0  0  0  0  0
    5.1496    1.6989   16.9987 H   0  0  0  0  0  0  0  0  0  0  0  0
  1 10  1  0  0  0  0
  1 20  2  0  0  0  0
  2  6  2  0  0  0  0
  2  9  1  0  0  0  0
  2 16  1  0  0  0  0
  3  7  2  0  0  0  0
  3 14  1  0  0  0  0
  3 19  1  0  0  0  0
  4 13  2  0  0  0  0
  5 13  1  0  0  0  0
  5 19  1  0  0  0  0
  5 23  1  0  0  0  0
  5 24  1  0  0  0  0
  6 20  1  0  0  0  0
  6 25  1  0  0  0  0
  7 21  1  0  0  0  0
  7 26  1  0  0  0  0
  8 17  1  0  0  0  0
  8 18  2  0  0  0  0
  8 19  1  0  0  0  0
  9 10  2  0  0  0  0
  9 17  1  0  0  0  0
 10 27  1  0  0  0  0
 11 14  2  0  0  0  0
 11 15  1  0  0  0  0
 11 28  1  0  0  0  0
 12 13  1  0  0  0  0
 12 19  1  0  0  0  0
 12 29  1  0  0  0  0
 12 30  1  0  0  0  0
 14 31  1  0  0  0  0
 15 21  2  0  0  0  0
 15 32  1  0  0  0  0
 16 33  1  0  0  0  0
 16 34  1  0  0  0  0
 16 35  1  0  0  0  0
 17 36  1  0  0  0  0
 20 37  1  0  0  0  0
 21 22  1  0  0  0  0
M  END
> <compound_name>
BAR-COM-0f94fc3d-25

> <provenance>
{"isomeric_smiles": "Cc1ccncc1NC(=O)C2(CC(=O)C2)c3cccc(c3)Cl", "inchi": "InChI=1S/C17H15ClN2O2/c1-11-5-6-19-10-15(11)20-16(22)17(8-14(21)9-17)12-3-2-4-13(18)7-12/h2-7,10H,8-9H2,1H3,(H,20,22)", "inchi_key": "NYGOHBKHNOCJCL-UHFFFAOYSA-N", "fixed_inchi": "InChI=1/C17H15ClN2O2/c1-11-5-6-19-10-15(11)20-16(22)17(8-14(21)9-17)12-3-2-4-13(18)7-12/h2-7,10H,8-9H2,1H3,(H,20,22)/f/h20H", "fixed_inchikey": "NYGOHBKHNOCJCL-UYBDAZJANA-N"}

> <data_format>
sdf

$$$$
