LIG(A-305)
  -OEChem-06042511353D

 34 35  0     0  0  0  0  0  0999 V2000
   11.6142   -4.2455   26.0086 F   0  0  0  0  0  0  0  0  0  0  0  0
   12.1282   -3.2035   25.2837 C   0  0  0  0  0  0  0  0  0  0  0  0
   13.4662   -2.9384   25.3878 C   0  0  0  0  0  0  0  0  0  0  0  0
   13.9782   -1.9094   24.6129 C   0  0  0  0  0  0  0  0  0  0  0  0
   13.1493   -1.1674   23.7808 C   0  0  0  0  0  0  0  0  0  0  0  0
   11.2723   -2.4835   24.4676 C   0  0  0  0  0  0  0  0  0  0  0  0
   11.7863   -1.4314   23.7107 C   0  0  0  0  0  0  0  0  0  0  0  0
   10.8723   -0.5285   22.9177 C   0  0  0  0  0  0  0  0  0  0  0  0
    9.6424   -1.1815   22.2425 C   0  0  0  0  0  0  0  0  0  0  0  0
    8.8794   -0.2035   21.3715 C   0  0  0  0  0  0  0  0  0  0  0  0
    9.3514    0.8905   21.0586 O   0  0  0  0  0  0  0  0  0  0  0  0
    7.6635   -0.6396   20.9534 N   0  0  0  0  0  0  0  0  0  0  0  0
    6.8825   -0.0176   19.9343 C   0  0  0  0  0  0  0  0  0  0  0  0
    5.6914    0.6763   20.2583 C   0  0  0  0  0  0  0  0  0  0  0  0
    5.2053    0.8113   21.6782 C   0  0  0  0  0  0  0  0  0  0  0  0
    7.2886   -0.0385   18.5974 C   0  0  0  0  0  0  0  0  0  0  0  0
    6.6187    0.5575   17.6053 N   0  0  0  0  0  0  0  0  0  0  0  0
    5.4856    1.1934   17.9293 C   0  0  0  0  0  0  0  0  0  0  0  0
    4.9975    1.2803   19.2182 C   0  0  0  0  0  0  0  0  0  0  0  0
   14.1003   -3.5099   26.0494 H   0  0  0  0  0  0  0  0  0  0  0  0
   15.0331   -1.6819   24.6565 H   0  0  0  0  0  0  0  0  0  0  0  0
   13.5696   -0.3743   23.1801 H   0  0  0  0  0  0  0  0  0  0  0  0
   10.2227   -2.7330   24.4181 H   0  0  0  0  0  0  0  0  0  0  0  0
   10.5003    0.2486   23.6017 H   0  0  0  0  0  0  0  0  0  0  0  0
   11.4753   -0.0613   22.1251 H   0  0  0  0  0  0  0  0  0  0  0  0
    9.9849   -2.0195   21.6176 H   0  0  0  0  0  0  0  0  0  0  0  0
    8.9679   -1.5594   23.0251 H   0  0  0  0  0  0  0  0  0  0  0  0
    7.2880   -1.4562   21.3916 H   0  0  0  0  0  0  0  0  0  0  0  0
    5.9643    1.3351   22.2780 H   0  0  0  0  0  0  0  0  0  0  0  0
    4.2672    1.3855   21.6915 H   0  0  0  0  0  0  0  0  0  0  0  0
    5.0293   -0.1885   22.1019 H   0  0  0  0  0  0  0  0  0  0  0  0
    8.1974   -0.5673   18.3507 H   0  0  0  0  0  0  0  0  0  0  0  0
    4.9217    1.6649   17.1379 H   0  0  0  0  0  0  0  0  0  0  0  0
    4.0805    1.8155   19.4164 H   0  0  0  0  0  0  0  0  0  0  0  0
  1  2  1  0  0  0  0
  2  3  2  0  0  0  0
  2  6  1  0  0  0  0
  3  4  1  0  0  0  0
  3 20  1  0  0  0  0
  4  5  2  0  0  0  0
  4 21  1  0  0  0  0
  5  7  1  0  0  0  0
  5 22  1  0  0  0  0
  6  7  2  0  0  0  0
  6 23  1  0  0  0  0
  7  8  1  0  0  0  0
  8  9  1  0  0  0  0
  8 24  1  0  0  0  0
  8 25  1  0  0  0  0
  9 10  1  0  0  0  0
  9 26  1  0  0  0  0
  9 27  1  0  0  0  0
 10 11  2  0  0  0  0
 10 12  1  0  0  0  0
 12 13  1  0  0  0  0
 12 28  1  0  0  0  0
 13 14  2  0  0  0  0
 13 16  1  0  0  0  0
 14 15  1  0  0  0  0
 14 19  1  0  0  0  0
 15 29  1  0  0  0  0
 15 30  1  0  0  0  0
 15 31  1  0  0  0  0
 16 17  2  0  0  0  0
 16 32  1  0  0  0  0
 17 18  1  0  0  0  0
 18 19  2  0  0  0  0
 18 33  1  0  0  0  0
 19 34  1  0  0  0  0
M  END
> <compound_name>
BEN-DND-93268d01-5

> <provenance>
{"isomeric_smiles": "Cc1ccncc1NC(=O)CCc2cccc(c2)F", "inchi": "InChI=1S/C15H15FN2O/c1-11-7-8-17-10-14(11)18-15(19)6-5-12-3-2-4-13(16)9-12/h2-4,7-10H,5-6H2,1H3,(H,18,19)", "inchi_key": "RBRNVPIASJICKN-UHFFFAOYSA-N", "fixed_inchi": "InChI=1/C15H15FN2O/c1-11-7-8-17-10-14(11)18-15(19)6-5-12-3-2-4-13(16)9-12/h2-4,7-10H,5-6H2,1H3,(H,18,19)/f/h18H", "fixed_inchikey": "RBRNVPIASJICKN-GPQMBLKYNA-N"}

> <data_format>
sdf

$$$$
