LIG(A-305)
  -OEChem-06042511363D

 33 35  0     0  0  0  0  0  0999 V2000
    8.9873    0.6672   20.9184 O   0  0  0  0  0  0  0  0  0  0  0  0
    8.3803   -0.3248   21.3205 C   0  0  0  0  0  0  0  0  0  0  0  0
    8.8603   -1.1407   22.5055 C   0  0  0  0  0  0  0  0  0  0  0  0
   10.3203   -0.8807   22.7865 C   0  0  0  0  0  0  0  0  0  0  0  0
   10.5873    0.1263   23.6365 N   0  0  0  0  0  0  0  0  0  0  0  0
   11.8633    0.5363   23.7314 C   0  0  0  0  0  0  0  0  0  0  0  0
   12.9043   -0.0197   23.0115 C   0  0  0  0  0  0  0  0  0  0  0  0
   11.3013   -1.5367   22.0615 C   0  0  0  0  0  0  0  0  0  0  0  0
   12.5943   -1.0747   22.1845 C   0  0  0  0  0  0  0  0  0  0  0  0
   13.8623   -1.8747   21.2985 Cl  0  0  0  0  0  0  0  0  0  0  0  0
    7.2423   -0.7608   20.7595 N   0  0  0  0  0  0  0  0  0  0  0  0
    6.5403   -0.1468   19.7055 C   0  0  0  0  0  0  0  0  0  0  0  0
    5.3853    0.6262   20.0204 C   0  0  0  0  0  0  0  0  0  0  0  0
    4.8883    0.8022   21.3404 C   0  0  0  0  0  0  0  0  0  0  0  0
    3.8223    1.6222   21.5834 C   0  0  0  0  0  0  0  0  0  0  0  0
    3.1953    2.2942   20.5454 C   0  0  0  0  0  0  0  0  0  0  0  0
    3.6373    2.1592   19.2604 C   0  0  0  0  0  0  0  0  0  0  0  0
    4.7423    1.3252   18.9634 C   0  0  0  0  0  0  0  0  0  0  0  0
    5.2913    1.2051   17.6654 C   0  0  0  0  0  0  0  0  0  0  0  0
    6.3673    0.4871   17.3764 N   0  0  0  0  0  0  0  0  0  0  0  0
    6.9653   -0.1648   18.3805 C   0  0  0  0  0  0  0  0  0  0  0  0
    8.2694   -0.8685   23.3925 H   0  0  0  0  0  0  0  0  0  0  0  0
    8.7212   -2.2096   22.2861 H   0  0  0  0  0  0  0  0  0  0  0  0
   12.0886    1.3467   24.4090 H   0  0  0  0  0  0  0  0  0  0  0  0
   13.9133    0.3563   23.0942 H   0  0  0  0  0  0  0  0  0  0  0  0
   11.0630   -2.3763   21.4254 H   0  0  0  0  0  0  0  0  0  0  0  0
    6.8543   -1.6061   21.1268 H   0  0  0  0  0  0  0  0  0  0  0  0
    5.3588    0.2816   22.1615 H   0  0  0  0  0  0  0  0  0  0  0  0
    3.4646    1.7480   22.5946 H   0  0  0  0  0  0  0  0  0  0  0  0
    2.3486    2.9310   20.7552 H   0  0  0  0  0  0  0  0  0  0  0  0
    3.1399    2.6929   18.4641 H   0  0  0  0  0  0  0  0  0  0  0  0
    4.8029    1.7318   16.8589 H   0  0  0  0  0  0  0  0  0  0  0  0
    7.8430   -0.7484   18.1450 H   0  0  0  0  0  0  0  0  0  0  0  0
  1  2  2  0  0  0  0
  2  3  1  0  0  0  0
  2 11  1  0  0  0  0
  3  4  1  0  0  0  0
  3 22  1  0  0  0  0
  3 23  1  0  0  0  0
  4  5  2  0  0  0  0
  4  8  1  0  0  0  0
  5  6  1  0  0  0  0
  6  7  2  0  0  0  0
  6 24  1  0  0  0  0
  7  9  1  0  0  0  0
  7 25  1  0  0  0  0
  8  9  2  0  0  0  0
  8 26  1  0  0  0  0
  9 10  1  0  0  0  0
 11 12  1  0  0  0  0
 11 27  1  0  0  0  0
 12 13  2  0  0  0  0
 12 21  1  0  0  0  0
 13 14  1  0  0  0  0
 13 18  1  0  0  0  0
 14 15  2  0  0  0  0
 14 28  1  0  0  0  0
 15 16  1  0  0  0  0
 15 29  1  0  0  0  0
 16 17  2  0  0  0  0
 16 30  1  0  0  0  0
 17 18  1  0  0  0  0
 17 31  1  0  0  0  0
 18 19  2  0  0  0  0
 19 20  1  0  0  0  0
 19 32  1  0  0  0  0
 20 21  2  0  0  0  0
 21 33  1  0  0  0  0
M  END
> <compound_name>
PET-UNK-3c72d439-1

> <provenance>
{"isomeric_smiles": "c1ccc2c(c1)cncc2NC(=O)Cc3cc(ccn3)Cl", "inchi": "InChI=1S/C16H12ClN3O/c17-12-5-6-19-13(7-12)8-16(21)20-15-10-18-9-11-3-1-2-4-14(11)15/h1-7,9-10H,8H2,(H,20,21)", "inchi_key": "WBAYRCXMIZFJCT-UHFFFAOYSA-N", "fixed_inchi": "InChI=1/C16H12ClN3O/c17-12-5-6-19-13(7-12)8-16(21)20-15-10-18-9-11-3-1-2-4-14(11)15/h1-7,9-10H,8H2,(H,20,21)/f/h20H", "fixed_inchikey": "WBAYRCXMIZFJCT-UYBDAZJANA-N"}

> <data_format>
sdf

$$$$
