LIG(A-305)
  -OEChem-06042511343D

 38 40  0     0  0  0  0  0  0999 V2000
   13.8732   -1.3423   23.6004 C   0  0  0  0  0  0  0  0  0  0  0  0
    5.9007    0.7963   18.7642 C   0  0  0  0  0  0  0  0  0  0  0  0
    4.1078    1.8694   19.6273 C   0  0  0  0  0  0  0  0  0  0  0  0
    4.4749    1.5495   20.9313 C   0  0  0  0  0  0  0  0  0  0  0  0
    5.6230    0.8175   21.1502 C   0  0  0  0  0  0  0  0  0  0  0  0
    6.3698    0.4174   20.0372 C   0  0  0  0  0  0  0  0  0  0  0  0
   11.6081   -1.9004   22.9917 C   0  0  0  0  0  0  0  0  0  0  0  0
   10.1542   -1.5143   23.1319 C   0  0  0  0  0  0  0  0  0  0  0  0
   10.8002    0.8047   23.3626 C   0  0  0  0  0  0  0  0  0  0  0  0
   12.2502    0.4026   23.2405 C   0  0  0  0  0  0  0  0  0  0  0  0
    9.2060    0.1865   21.5809 C   0  0  0  0  0  0  0  0  0  0  0  0
    8.4479   -0.9245   20.8700 C   0  0  0  0  0  0  0  0  0  0  0  0
    7.5718   -0.3306   19.8191 C   0  0  0  0  0  0  0  0  0  0  0  0
    7.7786   -0.3567   18.4721 C   0  0  0  0  0  0  0  0  0  0  0  0
   12.4642   -0.9643   23.7226 N   0  3  0  0  0  0  0  0  0  0  0  0
    9.9701   -0.1514   22.6358 N   0  0  0  0  0  0  0  0  0  0  0  0
    6.7756    0.3222   17.8331 N   0  0  0  0  0  0  0  0  0  0  0  0
    4.7956    1.5183   18.5323 N   0  0  0  0  0  0  0  0  0  0  0  0
    9.1310    1.3455   21.1778 O   0  0  0  0  0  0  0  0  0  0  0  0
   14.0108   -2.3702   23.9673 H   0  0  0  0  0  0  0  0  0  0  0  0
   14.1776   -1.2861   22.5449 H   0  0  0  0  0  0  0  0  0  0  0  0
   14.4903   -0.6545   24.1971 H   0  0  0  0  0  0  0  0  0  0  0  0
    3.2028    2.4422   19.4881 H   0  0  0  0  0  0  0  0  0  0  0  0
    3.8666    1.8715   21.7636 H   0  0  0  0  0  0  0  0  0  0  0  0
    5.9362    0.5607   22.1514 H   0  0  0  0  0  0  0  0  0  0  0  0
   11.7535   -2.9132   23.3953 H   0  0  0  0  0  0  0  0  0  0  0  0
   11.8844   -1.8868   21.9271 H   0  0  0  0  0  0  0  0  0  0  0  0
    9.5314   -2.2066   22.5462 H   0  0  0  0  0  0  0  0  0  0  0  0
    9.8606   -1.5635   24.1908 H   0  0  0  0  0  0  0  0  0  0  0  0
   10.5092    0.8116   24.4234 H   0  0  0  0  0  0  0  0  0  0  0  0
   10.6608    1.8096   22.9375 H   0  0  0  0  0  0  0  0  0  0  0  0
   12.5510    0.4615   22.1840 H   0  0  0  0  0  0  0  0  0  0  0  0
   12.8653    1.0934   23.8359 H   0  0  0  0  0  0  0  0  0  0  0  0
    9.1636   -1.6172   20.4032 H   0  0  0  0  0  0  0  0  0  0  0  0
    7.8299   -1.4712   21.5976 H   0  0  0  0  0  0  0  0  0  0  0  0
    8.6101   -0.8410   17.9815 H   0  0  0  0  0  0  0  0  0  0  0  0
   12.2128   -0.9986   24.6898 H   0  0  0  0  0  0  0  0  0  0  0  0
    6.6992    0.4496   16.8477 H   0  0  0  0  0  0  0  0  0  0  0  0
  1 15  1  0  0  0  0
  1 20  1  0  0  0  0
  1 21  1  0  0  0  0
  1 22  1  0  0  0  0
  2  6  1  0  0  0  0
  2 17  1  0  0  0  0
  2 18  2  0  0  0  0
  3  4  2  0  0  0  0
  3 18  1  0  0  0  0
  3 23  1  0  0  0  0
  4  5  1  0  0  0  0
  4 24  1  0  0  0  0
  5  6  2  0  0  0  0
  5 25  1  0  0  0  0
  6 13  1  0  0  0  0
  7  8  1  0  0  0  0
  7 15  1  0  0  0  0
  7 26  1  0  0  0  0
  7 27  1  0  0  0  0
  8 16  1  0  0  0  0
  8 28  1  0  0  0  0
  8 29  1  0  0  0  0
  9 10  1  0  0  0  0
  9 16  1  0  0  0  0
  9 30  1  0  0  0  0
  9 31  1  0  0  0  0
 10 15  1  0  0  0  0
 10 32  1  0  0  0  0
 10 33  1  0  0  0  0
 11 12  1  0  0  0  0
 11 16  1  0  0  0  0
 11 19  2  0  0  0  0
 12 13  1  0  0  0  0
 12 34  1  0  0  0  0
 12 35  1  0  0  0  0
 13 14  2  0  0  0  0
 14 17  1  0  0  0  0
 14 36  1  0  0  0  0
 15 37  1  0  0  0  0
 17 38  1  0  0  0  0
M  CHG  1  15   1
M  END
> <compound_name>
AAR-POS-d2a4d1df-20

> <provenance>
{"isomeric_smiles": "C[NH+]1CCN(CC1)C(=O)Cc2c[nH]c3c2cccn3", "inchi": "InChI=1S/C14H18N4O/c1-17-5-7-18(8-6-17)13(19)9-11-10-16-14-12(11)3-2-4-15-14/h2-4,10H,5-9H2,1H3,(H,15,16)/p+1", "inchi_key": "XAAUHRXDRLNFFL-UHFFFAOYSA-O", "fixed_inchi": "InChI=1/C14H18N4O/c1-17-5-7-18(8-6-17)13(19)9-11-10-16-14-12(11)3-2-4-15-14/h2-4,10H,5-9H2,1H3,(H,15,16)/p+1/fC14H19N4O/h16-17H/q+1", "fixed_inchikey": "XAAUHRXDRLNFFL-YYSMVQGSNA-O"}

> <data_format>
sdf

$$$$
