LIG(A-305)
  -OEChem-06042511353D

 47 49  0     0  0  0  0  0  0999 V2000
    6.6495    0.5867   17.5988 N   0  0  0  0  0  0  0  0  0  0  0  0
    9.2766   -0.6986   22.4907 N   0  0  0  0  0  0  0  0  0  0  0  0
    7.4936   -0.5734   20.9807 N   0  0  0  0  0  0  0  0  0  0  0  0
    7.2246   -3.8406   24.9306 C   0  0  0  0  0  0  0  0  0  0  0  0
   13.3277    0.2032   23.0795 C   0  0  0  0  0  0  0  0  0  0  0  0
    9.2336    0.8875   20.8717 O   0  0  0  0  0  0  0  0  0  0  0  0
    9.5075   -4.5677   25.3125 C   0  0  0  0  0  0  0  0  0  0  0  0
   12.3568    0.8312   23.8476 C   0  0  0  0  0  0  0  0  0  0  0  0
    5.5265    1.2698   17.8579 C   0  0  0  0  0  0  0  0  0  0  0  0
    8.4726   -1.4946   23.4257 C   0  0  0  0  0  0  0  0  0  0  0  0
   11.6136   -1.1287   22.0225 C   0  0  0  0  0  0  0  0  0  0  0  0
   10.6476   -0.4907   22.7946 C   0  0  0  0  0  0  0  0  0  0  0  0
    6.8446   -4.4416   26.2656 C   0  0  0  0  0  0  0  0  0  0  0  0
    6.7586    0.0136   19.9328 C   0  0  0  0  0  0  0  0  0  0  0  0
    7.2415   -0.0313   18.6238 C   0  0  0  0  0  0  0  0  0  0  0  0
    9.0686   -5.1397   26.6365 C   0  0  0  0  0  0  0  0  0  0  0  0
    8.6796   -0.0685   21.3927 C   0  0  0  0  0  0  0  0  0  0  0  0
    5.5976    0.7367   20.1729 C   0  0  0  0  0  0  0  0  0  0  0  0
   12.9366   -0.7768   22.1855 C   0  0  0  0  0  0  0  0  0  0  0  0
    8.6456   -3.4296   24.9426 N   0  3  0  0  0  0  0  0  0  0  0  0
    7.6945   -5.5476   26.6046 O   0  0  0  0  0  0  0  0  0  0  0  0
    9.0516   -2.8656   23.6486 C   0  0  0  0  0  0  0  0  0  0  0  0
   11.0207    0.4823   23.7216 C   0  0  0  0  0  0  0  0  0  0  0  0
    4.9706    1.3798   19.1229 C   0  0  0  0  0  0  0  0  0  0  0  0
   14.1455   -1.6318   21.2734 Cl  0  0  0  0  0  0  0  0  0  0  0  0
    7.1285   -1.3869   21.4335 H   0  0  0  0  0  0  0  0  0  0  0  0
    7.0687   -4.5873   24.1381 H   0  0  0  0  0  0  0  0  0  0  0  0
    6.5934   -2.9611   24.7350 H   0  0  0  0  0  0  0  0  0  0  0  0
   14.3683    0.4746   23.1783 H   0  0  0  0  0  0  0  0  0  0  0  0
   10.5496   -4.2245   25.3918 H   0  0  0  0  0  0  0  0  0  0  0  0
    9.4357   -5.3456   24.5381 H   0  0  0  0  0  0  0  0  0  0  0  0
   12.6448    1.5992   24.5502 H   0  0  0  0  0  0  0  0  0  0  0  0
    5.0271    1.7616   17.0362 H   0  0  0  0  0  0  0  0  0  0  0  0
    8.4268   -0.9682   24.3905 H   0  0  0  0  0  0  0  0  0  0  0  0
    7.4567   -1.6011   23.0175 H   0  0  0  0  0  0  0  0  0  0  0  0
   11.3315   -1.8872   21.3073 H   0  0  0  0  0  0  0  0  0  0  0  0
    6.9348   -3.6696   27.0441 H   0  0  0  0  0  0  0  0  0  0  0  0
    5.8033   -4.7927   26.2164 H   0  0  0  0  0  0  0  0  0  0  0  0
    8.1416   -0.5959   18.4298 H   0  0  0  0  0  0  0  0  0  0  0  0
    9.6948   -6.0124   26.8738 H   0  0  0  0  0  0  0  0  0  0  0  0
    9.1958   -4.3742   27.4161 H   0  0  0  0  0  0  0  0  0  0  0  0
    5.1886    0.7958   21.1707 H   0  0  0  0  0  0  0  0  0  0  0  0
    8.7553   -2.7200   25.6385 H   0  0  0  0  0  0  0  0  0  0  0  0
   10.1491   -2.7969   23.6195 H   0  0  0  0  0  0  0  0  0  0  0  0
    8.7046   -3.5327   22.8457 H   0  0  0  0  0  0  0  0  0  0  0  0
   10.2737    0.9609   24.3375 H   0  0  0  0  0  0  0  0  0  0  0  0
    4.0699    1.9537   19.2838 H   0  0  0  0  0  0  0  0  0  0  0  0
  1  9  2  0  0  0  0
  1 15  1  0  0  0  0
  2 10  1  0  0  0  0
  2 12  1  0  0  0  0
  2 17  1  0  0  0  0
  3 14  1  0  0  0  0
  3 17  1  0  0  0  0
  3 26  1  0  0  0  0
  4 13  1  0  0  0  0
  4 20  1  0  0  0  0
  4 27  1  0  0  0  0
  4 28  1  0  0  0  0
  5  8  2  0  0  0  0
  5 19  1  0  0  0  0
  5 29  1  0  0  0  0
  6 17  2  0  0  0  0
  7 16  1  0  0  0  0
  7 20  1  0  0  0  0
  7 30  1  0  0  0  0
  7 31  1  0  0  0  0
  8 23  1  0  0  0  0
  8 32  1  0  0  0  0
  9 24  1  0  0  0  0
  9 33  1  0  0  0  0
 10 22  1  0  0  0  0
 10 34  1  0  0  0  0
 10 35  1  0  0  0  0
 11 12  1  0  0  0  0
 11 19  2  0  0  0  0
 11 36  1  0  0  0  0
 12 23  2  0  0  0  0
 13 21  1  0  0  0  0
 13 37  1  0  0  0  0
 13 38  1  0  0  0  0
 14 15  2  0  0  0  0
 14 18  1  0  0  0  0
 15 39  1  0  0  0  0
 16 21  1  0  0  0  0
 16 40  1  0  0  0  0
 16 41  1  0  0  0  0
 18 24  2  0  0  0  0
 18 42  1  0  0  0  0
 19 25  1  0  0  0  0
 20 22  1  0  0  0  0
 20 43  1  0  0  0  0
 22 44  1  0  0  0  0
 22 45  1  0  0  0  0
 23 46  1  0  0  0  0
 24 47  1  0  0  0  0
M  CHG  1  20   1
M  END
> <compound_name>
JOR-UNI-2fc98d0b-6

> <provenance>
{"isomeric_smiles": "c1cc(cc(c1)Cl)N(CC[NH+]2CCOCC2)C(=O)Nc3cccnc3", "inchi": "InChI=1S/C18H21ClN4O2/c19-15-3-1-5-17(13-15)23(8-7-22-9-11-25-12-10-22)18(24)21-16-4-2-6-20-14-16/h1-6,13-14H,7-12H2,(H,21,24)/p+1", "inchi_key": "MLWZGJVGRRIOOY-UHFFFAOYSA-O", "fixed_inchi": "InChI=1/C18H21ClN4O2/c19-15-3-1-5-17(13-15)23(8-7-22-9-11-25-12-10-22)18(24)21-16-4-2-6-20-14-16/h1-6,13-14H,7-12H2,(H,21,24)/p+1/fC18H22ClN4O2/h21-22H/q+1", "fixed_inchikey": "MLWZGJVGRRIOOY-ROGUXBETNA-O"}

> <data_format>
sdf

$$$$
