LIG(A-305)
  -OEChem-06042511343D

 44 46  0     1  0  0  0  0  0999 V2000
   12.0494    0.5293   23.5657 O   0  0  0  0  0  0  0  0  0  0  0  0
   11.2224   -0.0306   24.5868 S   0  0  0  0  0  0  0  0  0  0  0  0
   10.9266    0.7323   25.7598 O   0  0  0  0  0  0  0  0  0  0  0  0
   11.9822   -1.5508   25.1176 C   0  0  0  0  0  0  0  0  0  0  0  0
   11.2311   -2.6547   25.6177 C   0  0  0  0  0  0  0  0  0  0  0  0
    9.8671   -2.6365   25.5348 N   0  0  0  0  0  0  0  0  0  0  0  0
    9.2150   -3.7214   25.9208 C   0  0  0  0  0  0  0  0  0  0  0  0
    9.8229   -4.8645   26.4047 C   0  0  0  0  0  0  0  0  0  0  0  0
   11.1819   -4.8937   26.5016 C   0  0  0  0  0  0  0  0  0  0  0  0
   11.9490   -3.7728   26.1065 C   0  0  0  0  0  0  0  0  0  0  0  0
   13.3640   -3.7450   26.0934 C   0  0  0  0  0  0  0  0  0  0  0  0
   14.0351   -2.6781   25.5823 C   0  0  0  0  0  0  0  0  0  0  0  0
   13.3502   -1.5850   25.0835 C   0  0  0  0  0  0  0  0  0  0  0  0
    9.7913   -0.3854   23.8959 N   0  0  3  0  0  0  0  0  0  0  0  0
    8.5884   -0.3152   24.7321 C   0  0  0  0  0  0  0  0  0  0  0  0
    9.6790   -1.0523   22.5849 C   0  0  0  0  0  0  0  0  0  0  0  0
    9.0900   -0.1612   21.5060 C   0  0  0  0  0  0  0  0  0  0  0  0
    9.6711    0.8488   21.1140 O   0  0  0  0  0  0  0  0  0  0  0  0
    7.8869   -0.5730   21.0501 N   0  0  0  0  0  0  0  0  0  0  0  0
    7.1199    0.0082   20.0132 C   0  0  0  0  0  0  0  0  0  0  0  0
    5.8860    0.6154   20.3114 C   0  0  0  0  0  0  0  0  0  0  0  0
    5.3662    0.7154   21.7225 C   0  0  0  0  0  0  0  0  0  0  0  0
    5.1590    1.1425   19.2465 C   0  0  0  0  0  0  0  0  0  0  0  0
    5.6658    1.0575   17.9654 C   0  0  0  0  0  0  0  0  0  0  0  0
    6.8407    0.4904   17.6703 N   0  0  0  0  0  0  0  0  0  0  0  0
    7.5457   -0.0228   18.6842 C   0  0  0  0  0  0  0  0  0  0  0  0
    8.1371   -3.7130   25.8533 H   0  0  0  0  0  0  0  0  0  0  0  0
    9.2319   -5.7186   26.7005 H   0  0  0  0  0  0  0  0  0  0  0  0
   11.6752   -5.7762   26.8815 H   0  0  0  0  0  0  0  0  0  0  0  0
   13.9176   -4.5813   26.4941 H   0  0  0  0  0  0  0  0  0  0  0  0
   15.1150   -2.6846   25.5659 H   0  0  0  0  0  0  0  0  0  0  0  0
   13.8978   -0.7537   24.6646 H   0  0  0  0  0  0  0  0  0  0  0  0
    7.7067   -0.5797   24.1298 H   0  0  0  0  0  0  0  0  0  0  0  0
    8.6837   -1.0199   25.5713 H   0  0  0  0  0  0  0  0  0  0  0  0
    8.4725    0.7066   25.1225 H   0  0  0  0  0  0  0  0  0  0  0  0
   10.6835   -1.3683   22.2668 H   0  0  0  0  0  0  0  0  0  0  0  0
    9.0348   -1.9368   22.6972 H   0  0  0  0  0  0  0  0  0  0  0  0
    7.4949   -1.3781   21.4951 H   0  0  0  0  0  0  0  0  0  0  0  0
    6.0766    1.2892   22.3357 H   0  0  0  0  0  0  0  0  0  0  0  0
    4.3909    1.2242   21.7186 H   0  0  0  0  0  0  0  0  0  0  0  0
    5.2512   -0.2944   22.1432 H   0  0  0  0  0  0  0  0  0  0  0  0
    4.2040    1.6152   19.4223 H   0  0  0  0  0  0  0  0  0  0  0  0
    5.0817    1.4717   17.1570 H   0  0  0  0  0  0  0  0  0  0  0  0
    8.4958   -0.4862   18.4629 H   0  0  0  0  0  0  0  0  0  0  0  0
  1  2  2  0  0  0  0
  2  3  2  0  0  0  0
  2  4  1  0  0  0  0
  2 14  1  0  0  0  0
  4  5  2  0  0  0  0
  4 13  1  0  0  0  0
  5  6  1  0  0  0  0
  5 10  1  0  0  0  0
  6  7  2  0  0  0  0
  7  8  1  0  0  0  0
  7 27  1  0  0  0  0
  8  9  2  0  0  0  0
  8 28  1  0  0  0  0
  9 10  1  0  0  0  0
  9 29  1  0  0  0  0
 10 11  2  0  0  0  0
 11 12  1  0  0  0  0
 11 30  1  0  0  0  0
 12 13  2  0  0  0  0
 12 31  1  0  0  0  0
 13 32  1  0  0  0  0
 14 15  1  0  0  0  0
 14 16  1  0  0  0  0
 15 33  1  0  0  0  0
 15 34  1  0  0  0  0
 15 35  1  0  0  0  0
 16 17  1  0  0  0  0
 16 36  1  0  0  0  0
 16 37  1  0  0  0  0
 17 18  2  0  0  0  0
 17 19  1  0  0  0  0
 19 20  1  0  0  0  0
 19 38  1  0  0  0  0
 20 21  2  0  0  0  0
 20 26  1  0  0  0  0
 21 22  1  0  0  0  0
 21 23  1  0  0  0  0
 22 39  1  0  0  0  0
 22 40  1  0  0  0  0
 22 41  1  0  0  0  0
 23 24  2  0  0  0  0
 23 42  1  0  0  0  0
 24 25  1  0  0  0  0
 24 43  1  0  0  0  0
 25 26  2  0  0  0  0
 26 44  1  0  0  0  0
M  END
> <compound_name>
GAB-REV-70cc3ca5-8

> <provenance>
{"isomeric_smiles": "Cc1ccncc1NC(=O)CN(C)S(=O)(=O)c2cccc3c2nccc3", "inchi": "InChI=1S/C18H18N4O3S/c1-13-8-10-19-11-15(13)21-17(23)12-22(2)26(24,25)16-7-3-5-14-6-4-9-20-18(14)16/h3-11H,12H2,1-2H3,(H,21,23)", "inchi_key": "SLABCQCJIBADKR-UHFFFAOYSA-N", "fixed_inchi": "InChI=1/C18H18N4O3S/c1-13-8-10-19-11-15(13)21-17(23)12-22(2)26(24,25)16-7-3-5-14-6-4-9-20-18(14)16/h3-11H,12H2,1-2H3,(H,21,23)/f/h21H", "fixed_inchikey": "SLABCQCJIBADKR-PKSOQXRJNA-N"}

> <data_format>
sdf

$$$$
