LIG(A-305)
  -OEChem-06042511373D

 40 43  0     1  0  0  0  0  0999 V2000
    8.4933    0.9586   21.3757 O   0  0  0  0  0  0  0  0  0  0  0  0
    8.1931   -0.2163   21.5357 C   0  0  0  0  0  0  0  0  0  0  0  0
    8.6321   -0.9944   22.8277 C   0  0  1  0  0  0  0  0  0  0  0  0
   10.0652   -0.5826   23.1585 C   0  0  0  0  0  0  0  0  0  0  0  0
   11.1651   -1.2908   22.6824 C   0  0  0  0  0  0  0  0  0  0  0  0
   12.4112   -0.6950   22.7093 C   0  0  0  0  0  0  0  0  0  0  0  0
   13.7640   -1.5412   22.0152 Cl  0  0  0  0  0  0  0  0  0  0  0  0
   12.6074    0.5600   23.2463 C   0  0  0  0  0  0  0  0  0  0  0  0
   11.5306    1.2431   23.7814 C   0  0  0  0  0  0  0  0  0  0  0  0
   10.2555    0.6793   23.7365 C   0  0  0  0  0  0  0  0  0  0  0  0
    9.1526    1.4015   24.2006 N   0  0  0  0  0  0  0  0  0  0  0  0
    7.8895    0.9287   24.2527 C   0  0  0  0  0  0  0  0  0  0  0  0
    6.9287    1.6758   24.4378 O   0  0  0  0  0  0  0  0  0  0  0  0
    7.7053   -0.5403   23.9697 C   0  0  0  0  0  0  0  0  0  0  0  0
    8.5119   -2.4074   22.7097 O   0  0  0  0  0  0  0  0  0  0  0  0
    7.5299   -0.8982   20.5827 N   0  0  0  0  0  0  0  0  0  0  0  0
    6.5829   -0.4621   19.6378 C   0  0  0  0  0  0  0  0  0  0  0  0
    5.5801    0.5011   19.9919 C   0  0  0  0  0  0  0  0  0  0  0  0
    5.0382    0.6351   21.2980 C   0  0  0  0  0  0  0  0  0  0  0  0
    4.0164    1.5073   21.5501 C   0  0  0  0  0  0  0  0  0  0  0  0
    3.4874    2.2904   20.5361 C   0  0  0  0  0  0  0  0  0  0  0  0
    3.9753    2.2033   19.2651 C   0  0  0  0  0  0  0  0  0  0  0  0
    5.0241    1.3042   18.9550 C   0  0  0  0  0  0  0  0  0  0  0  0
    5.5080    1.1111   17.6409 C   0  0  0  0  0  0  0  0  0  0  0  0
    6.4028    0.1960   17.3079 N   0  0  0  0  0  0  0  0  0  0  0  0
    6.8878   -0.5771   18.2858 C   0  0  0  0  0  0  0  0  0  0  0  0
   11.0458   -2.2927   22.2971 H   0  0  0  0  0  0  0  0  0  0  0  0
   13.5917    1.0046   23.2489 H   0  0  0  0  0  0  0  0  0  0  0  0
   11.6768    2.2128   24.2339 H   0  0  0  0  0  0  0  0  0  0  0  0
    9.3109    2.3368   24.5172 H   0  0  0  0  0  0  0  0  0  0  0  0
    7.9418   -1.1153   24.8771 H   0  0  0  0  0  0  0  0  0  0  0  0
    6.6598   -0.7241   23.6812 H   0  0  0  0  0  0  0  0  0  0  0  0
    7.6694   -2.6836   23.0509 H   0  0  0  0  0  0  0  0  0  0  0  0
    7.7456   -1.8738   20.5394 H   0  0  0  0  0  0  0  0  0  0  0  0
    5.4397    0.0390   22.1041 H   0  0  0  0  0  0  0  0  0  0  0  0
    3.6168    1.5870   22.5502 H   0  0  0  0  0  0  0  0  0  0  0  0
    2.6818    2.9757   20.7543 H   0  0  0  0  0  0  0  0  0  0  0  0
    3.5575    2.8262   18.4880 H   0  0  0  0  0  0  0  0  0  0  0  0
    5.1230    1.7507   16.8605 H   0  0  0  0  0  0  0  0  0  0  0  0
    7.5762   -1.3589   18.0005 H   0  0  0  0  0  0  0  0  0  0  0  0
  1  2  2  0  0  0  0
  2  3  1  0  0  0  0
  2 16  1  0  0  0  0
  3  4  1  0  0  0  0
  3 14  1  0  0  0  0
  3 15  1  0  0  0  0
  4  5  1  0  0  0  0
  4 10  2  0  0  0  0
  5  6  2  0  0  0  0
  5 27  1  0  0  0  0
  6  7  1  0  0  0  0
  6  8  1  0  0  0  0
  8  9  2  0  0  0  0
  8 28  1  0  0  0  0
  9 10  1  0  0  0  0
  9 29  1  0  0  0  0
 10 11  1  0  0  0  0
 11 12  1  0  0  0  0
 11 30  1  0  0  0  0
 12 13  2  0  0  0  0
 12 14  1  0  0  0  0
 14 31  1  0  0  0  0
 14 32  1  0  0  0  0
 15 33  1  0  0  0  0
 16 17  1  0  0  0  0
 16 34  1  0  0  0  0
 17 18  2  0  0  0  0
 17 26  1  0  0  0  0
 18 19  1  0  0  0  0
 18 23  1  0  0  0  0
 19 20  2  0  0  0  0
 19 35  1  0  0  0  0
 20 21  1  0  0  0  0
 20 36  1  0  0  0  0
 21 22  2  0  0  0  0
 21 37  1  0  0  0  0
 22 23  1  0  0  0  0
 22 38  1  0  0  0  0
 23 24  2  0  0  0  0
 24 25  1  0  0  0  0
 24 39  1  0  0  0  0
 25 26  2  0  0  0  0
 26 40  1  0  0  0  0
M  END
> <compound_name>
MAT-POS-c7771779-1

> <provenance>
{"isomeric_smiles": "c1ccc2c(c1)cncc2NC(=O)[C@@]3(CC(=O)Nc4c3cc(cc4)Cl)O", "inchi": "InChI=1S/C19H14ClN3O3/c20-12-5-6-15-14(7-12)19(26,8-17(24)22-15)18(25)23-16-10-21-9-11-3-1-2-4-13(11)16/h1-7,9-10,26H,8H2,(H,22,24)(H,23,25)/t19-/m0/s1", "inchi_key": "WTGNNXIIBVYQGH-IBGZPJMESA-N", "fixed_inchi": "InChI=1/C19H14ClN3O3/c20-12-5-6-15-14(7-12)19(26,8-17(24)22-15)18(25)23-16-10-21-9-11-3-1-2-4-13(11)16/h1-7,9-10,26H,8H2,(H,22,24)(H,23,25)/t19-/m0/s1/f/h22-23H", "fixed_inchikey": "WTGNNXIIBVYQGH-YOGRICEWNA-N"}

> <data_format>
sdf

$$$$
