LIG(A-305)
  -OEChem-06042511373D

 56 59  0     0  0  0  0  0  0999 V2000
    9.3383    0.8778   21.1053 O   0  0  0  0  0  0  0  0  0  0  0  0
    8.9863   -0.2291   21.4883 C   0  0  0  0  0  0  0  0  0  0  0  0
    7.9652   -1.0271   20.6994 C   0  0  0  0  0  0  0  0  0  0  0  0
    7.1202   -0.1750   19.7735 C   0  0  0  0  0  0  0  0  0  0  0  0
    6.0202    0.5760   20.2745 C   0  0  0  0  0  0  0  0  0  0  0  0
    5.6843    0.6411   21.6515 C   0  0  0  0  0  0  0  0  0  0  0  0
    4.5894    1.3382   22.0746 C   0  0  0  0  0  0  0  0  0  0  0  0
    3.7784    2.0012   21.1636 C   0  0  0  0  0  0  0  0  0  0  0  0
    4.0723    1.9872   19.8306 C   0  0  0  0  0  0  0  0  0  0  0  0
    5.1972    1.2761   19.3505 C   0  0  0  0  0  0  0  0  0  0  0  0
    5.5431    1.1950   17.9815 C   0  0  0  0  0  0  0  0  0  0  0  0
    6.5841    0.5119   17.5175 N   0  0  0  0  0  0  0  0  0  0  0  0
    7.3371   -0.1481   18.4085 C   0  0  0  0  0  0  0  0  0  0  0  0
    9.4643   -0.7811   22.6283 N   0  0  0  0  0  0  0  0  0  0  0  0
   10.3334   -0.0151   23.5022 C   0  0  0  0  0  0  0  0  0  0  0  0
   11.7414   -0.0223   22.9932 C   0  0  0  0  0  0  0  0  0  0  0  0
   12.8975    1.0927   23.5810 S   0  0  0  0  0  0  0  0  0  0  0  0
   14.1174    0.4356   22.5630 C   0  0  0  0  0  0  0  0  0  0  0  0
   13.6803   -0.5924   21.8030 C   0  0  0  0  0  0  0  0  0  0  0  0
   12.3133   -0.8883   22.0181 C   0  0  0  0  0  0  0  0  0  0  0  0
    9.1442   -2.1461   23.0724 C   0  0  0  0  0  0  0  0  0  0  0  0
    7.9923   -2.1400   24.0715 C   0  0  0  0  0  0  0  0  0  0  0  0
    7.9583   -3.1279   25.2575 C   0  0  0  0  0  0  0  0  0  0  0  0
    6.7193   -4.0238   25.2436 C   0  0  0  0  0  0  0  0  0  0  0  0
    6.6323   -4.9138   26.4857 C   0  0  0  0  0  0  0  0  0  0  0  0
    7.8912   -5.7529   26.6676 C   0  0  0  0  0  0  0  0  0  0  0  0
    9.1403   -4.8740   26.6615 C   0  0  0  0  0  0  0  0  0  0  0  0
    9.2033   -3.9980   25.4075 C   0  0  0  0  0  0  0  0  0  0  0  0
    8.4989   -1.7751   20.0948 H   0  0  0  0  0  0  0  0  0  0  0  0
    7.2978   -1.5377   21.4093 H   0  0  0  0  0  0  0  0  0  0  0  0
    6.3036    0.1320   22.3752 H   0  0  0  0  0  0  0  0  0  0  0  0
    4.3520    1.3742   23.1276 H   0  0  0  0  0  0  0  0  0  0  0  0
    2.9061    2.5336   21.5131 H   0  0  0  0  0  0  0  0  0  0  0  0
    3.4412    2.5230   19.1371 H   0  0  0  0  0  0  0  0  0  0  0  0
    4.9234    1.7203   17.2700 H   0  0  0  0  0  0  0  0  0  0  0  0
    8.1818   -0.7040   18.0292 H   0  0  0  0  0  0  0  0  0  0  0  0
    9.9726    1.0229   23.5497 H   0  0  0  0  0  0  0  0  0  0  0  0
   10.3121   -0.4571   24.5093 H   0  0  0  0  0  0  0  0  0  0  0  0
   15.1310    0.8072   22.5339 H   0  0  0  0  0  0  0  0  0  0  0  0
   14.3065   -1.1303   21.1066 H   0  0  0  0  0  0  0  0  0  0  0  0
   11.7725   -1.6715   21.5077 H   0  0  0  0  0  0  0  0  0  0  0  0
    8.8595   -2.7510   22.1989 H   0  0  0  0  0  0  0  0  0  0  0  0
   10.0320   -2.5864   23.5498 H   0  0  0  0  0  0  0  0  0  0  0  0
    7.9614   -1.1298   24.5058 H   0  0  0  0  0  0  0  0  0  0  0  0
    7.0750   -2.3176   23.4910 H   0  0  0  0  0  0  0  0  0  0  0  0
    7.8918   -2.5158   26.1691 H   0  0  0  0  0  0  0  0  0  0  0  0
    5.8230   -3.3875   25.2009 H   0  0  0  0  0  0  0  0  0  0  0  0
    6.7565   -4.6653   24.3507 H   0  0  0  0  0  0  0  0  0  0  0  0
    6.4976   -4.2765   27.3720 H   0  0  0  0  0  0  0  0  0  0  0  0
    5.7677   -5.5860   26.3825 H   0  0  0  0  0  0  0  0  0  0  0  0
    7.8320   -6.2870   27.6273 H   0  0  0  0  0  0  0  0  0  0  0  0
    7.9599   -6.4813   25.8462 H   0  0  0  0  0  0  0  0  0  0  0  0
    9.1257   -4.2257   27.5501 H   0  0  0  0  0  0  0  0  0  0  0  0
   10.0312   -5.5185   26.6924 H   0  0  0  0  0  0  0  0  0  0  0  0
    9.2917   -4.6475   24.5241 H   0  0  0  0  0  0  0  0  0  0  0  0
   10.0868   -3.3462   25.4731 H   0  0  0  0  0  0  0  0  0  0  0  0
  1  2  2  0  0  0  0
  2  3  1  0  0  0  0
  2 14  1  0  0  0  0
  3  4  1  0  0  0  0
  3 29  1  0  0  0  0
  3 30  1  0  0  0  0
  4  5  2  0  0  0  0
  4 13  1  0  0  0  0
  5  6  1  0  0  0  0
  5 10  1  0  0  0  0
  6  7  2  0  0  0  0
  6 31  1  0  0  0  0
  7  8  1  0  0  0  0
  7 32  1  0  0  0  0
  8  9  2  0  0  0  0
  8 33  1  0  0  0  0
  9 10  1  0  0  0  0
  9 34  1  0  0  0  0
 10 11  2  0  0  0  0
 11 12  1  0  0  0  0
 11 35  1  0  0  0  0
 12 13  2  0  0  0  0
 13 36  1  0  0  0  0
 14 15  1  0  0  0  0
 14 21  1  0  0  0  0
 15 16  1  0  0  0  0
 15 37  1  0  0  0  0
 15 38  1  0  0  0  0
 16 17  1  0  0  0  0
 16 20  2  0  0  0  0
 17 18  1  0  0  0  0
 18 19  2  0  0  0  0
 18 39  1  0  0  0  0
 19 20  1  0  0  0  0
 19 40  1  0  0  0  0
 20 41  1  0  0  0  0
 21 22  1  0  0  0  0
 21 42  1  0  0  0  0
 21 43  1  0  0  0  0
 22 23  1  0  0  0  0
 22 44  1  0  0  0  0
 22 45  1  0  0  0  0
 23 24  1  0  0  0  0
 23 28  1  0  0  0  0
 23 46  1  0  0  0  0
 24 25  1  0  0  0  0
 24 47  1  0  0  0  0
 24 48  1  0  0  0  0
 25 26  1  0  0  0  0
 25 49  1  0  0  0  0
 25 50  1  0  0  0  0
 26 27  1  0  0  0  0
 26 51  1  0  0  0  0
 26 52  1  0  0  0  0
 27 28  1  0  0  0  0
 27 53  1  0  0  0  0
 27 54  1  0  0  0  0
 28 55  1  0  0  0  0
 28 56  1  0  0  0  0
M  END
> <compound_name>
ALP-POS-64a710fa-1

> <provenance>
{"isomeric_smiles": "c1ccc2c(c1)cncc2CC(=O)N(CCC3CCCCC3)Cc4cccs4", "inchi": "InChI=1S/C24H28N2OS/c27-24(15-21-17-25-16-20-9-4-5-11-23(20)21)26(18-22-10-6-14-28-22)13-12-19-7-2-1-3-8-19/h4-6,9-11,14,16-17,19H,1-3,7-8,12-13,15,18H2", "inchi_key": "COUGPWQMAYMVGH-UHFFFAOYSA-N", "fixed_inchi": "InChI=1/C24H28N2OS/c27-24(15-21-17-25-16-20-9-4-5-11-23(20)21)26(18-22-10-6-14-28-22)13-12-19-7-2-1-3-8-19/h4-6,9-11,14,16-17,19H,1-3,7-8,12-13,15,18H2", "fixed_inchikey": "COUGPWQMAYMVGH-UHFFFAOYNA-N"}

> <data_format>
sdf

$$$$
