LIG(A-305)
  -OEChem-06042511323D

 49 52  0     0  0  0  0  0  0999 V2000
    9.1212    1.4208   20.9908 O   0  0  0  0  0  0  0  0  0  0  0  0
    8.8962    0.3778   21.5869 C   0  0  0  0  0  0  0  0  0  0  0  0
    9.2962    0.1769   22.8779 N   0  0  0  0  0  0  0  0  0  0  0  0
    9.7103    1.3549   23.6338 C   0  0  0  0  0  0  0  0  0  0  0  0
   11.1803    1.6498   23.4698 C   0  0  0  0  0  0  0  0  0  0  0  0
   11.7493    2.8868   23.0477 C   0  0  0  0  0  0  0  0  0  0  0  0
   13.1223    2.8337   22.9246 C   0  0  0  0  0  0  0  0  0  0  0  0
   13.7083    1.2707   23.3347 S   0  0  0  0  0  0  0  0  0  0  0  0
   12.1343    0.6948   23.6618 C   0  0  0  0  0  0  0  0  0  0  0  0
    9.1812   -1.0651   23.5699 C   0  0  0  0  0  0  0  0  0  0  0  0
    8.9122   -1.1010   24.9329 C   0  0  0  0  0  0  0  0  0  0  0  0
    8.8392   -2.3090   25.6050 C   0  0  0  0  0  0  0  0  0  0  0  0
    9.5811   -2.2362   22.9400 C   0  0  0  0  0  0  0  0  0  0  0  0
    9.5381   -3.4441   23.6110 C   0  0  0  0  0  0  0  0  0  0  0  0
    9.1621   -3.5060   24.9581 C   0  0  0  0  0  0  0  0  0  0  0  0
    9.1481   -4.7030   25.6331 N   0  0  0  0  0  0  0  0  0  0  0  0
    8.2201   -4.9269   26.7332 C   0  0  0  0  0  0  0  0  0  0  0  0
    9.5170   -5.9301   24.9532 C   0  0  0  0  0  0  0  0  0  0  0  0
    8.0601   -0.7212   20.9270 C   0  0  0  0  0  0  0  0  0  0  0  0
    7.1931   -0.1792   19.9010 N   0  0  0  0  0  0  0  0  0  0  0  0
    6.0431    0.5389   20.0290 C   0  0  0  0  0  0  0  0  0  0  0  0
    5.2742    0.9289   21.1150 C   0  0  0  0  0  0  0  0  0  0  0  0
    4.1392    1.6840   20.8570 C   0  0  0  0  0  0  0  0  0  0  0  0
    3.7972    2.0449   19.5550 C   0  0  0  0  0  0  0  0  0  0  0  0
    4.5792    1.6538   18.4760 C   0  0  0  0  0  0  0  0  0  0  0  0
    5.7121    0.8848   18.7230 C   0  0  0  0  0  0  0  0  0  0  0  0
    6.6591    0.3607   17.8749 N   0  0  0  0  0  0  0  0  0  0  0  0
    7.5351   -0.2803   18.5920 N   0  0  0  0  0  0  0  0  0  0  0  0
    9.1334    2.2227   23.2814 H   0  0  0  0  0  0  0  0  0  0  0  0
    9.5002    1.1834   24.6999 H   0  0  0  0  0  0  0  0  0  0  0  0
   11.1664    3.7731   22.8454 H   0  0  0  0  0  0  0  0  0  0  0  0
   13.7436    3.6604   22.6135 H   0  0  0  0  0  0  0  0  0  0  0  0
   11.9186   -0.3130   23.9845 H   0  0  0  0  0  0  0  0  0  0  0  0
    8.7588   -0.1782   25.4726 H   0  0  0  0  0  0  0  0  0  0  0  0
    8.5296   -2.3272   26.6395 H   0  0  0  0  0  0  0  0  0  0  0  0
    9.9285   -2.2030   21.9179 H   0  0  0  0  0  0  0  0  0  0  0  0
    9.7982   -4.3529   23.0887 H   0  0  0  0  0  0  0  0  0  0  0  0
    8.3670   -5.9394   27.1371 H   0  0  0  0  0  0  0  0  0  0  0  0
    8.4047   -4.1860   27.5250 H   0  0  0  0  0  0  0  0  0  0  0  0
    7.1875   -4.8241   26.3683 H   0  0  0  0  0  0  0  0  0  0  0  0
    9.4443   -6.7745   25.6543 H   0  0  0  0  0  0  0  0  0  0  0  0
    8.8367   -6.0981   24.1052 H   0  0  0  0  0  0  0  0  0  0  0  0
   10.5499   -5.8481   24.5839 H   0  0  0  0  0  0  0  0  0  0  0  0
    8.7356   -1.4603   20.4715 H   0  0  0  0  0  0  0  0  0  0  0  0
    7.4435   -1.2118   21.6945 H   0  0  0  0  0  0  0  0  0  0  0  0
    5.5483    0.6555   22.1232 H   0  0  0  0  0  0  0  0  0  0  0  0
    3.5110    1.9969   21.6778 H   0  0  0  0  0  0  0  0  0  0  0  0
    2.9109    2.6376   19.3826 H   0  0  0  0  0  0  0  0  0  0  0  0
    4.3141    1.9399   17.4688 H   0  0  0  0  0  0  0  0  0  0  0  0
  1  2  2  0  0  0  0
  2  3  1  0  0  0  0
  2 19  1  0  0  0  0
  3  4  1  0  0  0  0
  3 10  1  0  0  0  0
  4  5  1  0  0  0  0
  4 29  1  0  0  0  0
  4 30  1  0  0  0  0
  5  6  1  0  0  0  0
  5  9  2  0  0  0  0
  6  7  2  0  0  0  0
  6 31  1  0  0  0  0
  7  8  1  0  0  0  0
  7 32  1  0  0  0  0
  8  9  1  0  0  0  0
  9 33  1  0  0  0  0
 10 11  2  0  0  0  0
 10 13  1  0  0  0  0
 11 12  1  0  0  0  0
 11 34  1  0  0  0  0
 12 15  2  0  0  0  0
 12 35  1  0  0  0  0
 13 14  2  0  0  0  0
 13 36  1  0  0  0  0
 14 15  1  0  0  0  0
 14 37  1  0  0  0  0
 15 16  1  0  0  0  0
 16 17  1  0  0  0  0
 16 18  1  0  0  0  0
 17 38  1  0  0  0  0
 17 39  1  0  0  0  0
 17 40  1  0  0  0  0
 18 41  1  0  0  0  0
 18 42  1  0  0  0  0
 18 43  1  0  0  0  0
 19 20  1  0  0  0  0
 19 44  1  0  0  0  0
 19 45  1  0  0  0  0
 20 21  1  0  0  0  0
 20 28  1  0  0  0  0
 21 22  2  0  0  0  0
 21 26  1  0  0  0  0
 22 23  1  0  0  0  0
 22 46  1  0  0  0  0
 23 24  2  0  0  0  0
 23 47  1  0  0  0  0
 24 25  1  0  0  0  0
 24 48  1  0  0  0  0
 25 26  2  0  0  0  0
 25 49  1  0  0  0  0
 26 27  1  0  0  0  0
 27 28  2  0  0  0  0
M  END
> <compound_name>
ALP-POS-d2866bdf-1

> <provenance>
{"isomeric_smiles": "CN(C)c1ccc(cc1)N(Cc2ccsc2)C(=O)Cn3c4ccccc4nn3", "inchi": "InChI=1S/C21H21N5OS/c1-24(2)17-7-9-18(10-8-17)25(13-16-11-12-28-15-16)21(27)14-26-20-6-4-3-5-19(20)22-23-26/h3-12,15H,13-14H2,1-2H3", "inchi_key": "UEXLZKRRYKGPRD-UHFFFAOYSA-N", "fixed_inchi": "InChI=1/C21H21N5OS/c1-24(2)17-7-9-18(10-8-17)25(13-16-11-12-28-15-16)21(27)14-26-20-6-4-3-5-19(20)22-23-26/h3-12,15H,13-14H2,1-2H3", "fixed_inchikey": "UEXLZKRRYKGPRD-UHFFFAOYNA-N"}

> <data_format>
sdf

$$$$
