LIG(A-305)
  -OEChem-06042511323D

 37 40  0     1  0  0  0  0  0999 V2000
    8.5431    0.9135   21.0890 O   0  0  0  0  0  0  0  0  0  0  0  0
    8.2139   -0.2704   21.1240 C   0  0  0  0  0  0  0  0  0  0  0  0
    8.7360   -1.2335   22.1900 C   0  0  1  0  0  0  0  0  0  0  0  0
   10.2209   -1.5757   21.9448 C   0  0  0  0  0  0  0  0  0  0  0  0
   11.1171   -0.7598   22.8427 C   0  0  0  0  0  0  0  0  0  0  0  0
   10.7433   -0.9017   24.2227 O   0  0  0  0  0  0  0  0  0  0  0  0
    8.4342   -0.6134   23.5410 C   0  0  0  0  0  0  0  0  0  0  0  0
    9.4543   -0.5085   24.4869 C   0  0  0  0  0  0  0  0  0  0  0  0
    9.2296    0.0575   25.7309 C   0  0  0  0  0  0  0  0  0  0  0  0
    7.9817    0.5707   26.0331 C   0  0  0  0  0  0  0  0  0  0  0  0
    7.1783   -0.0953   23.8632 C   0  0  0  0  0  0  0  0  0  0  0  0
    6.9775    0.4998   25.0932 C   0  0  0  0  0  0  0  0  0  0  0  0
    5.4247    1.2080   25.4534 Cl  0  0  0  0  0  0  0  0  0  0  0  0
    7.5367   -0.8614   20.1091 N   0  0  0  0  0  0  0  0  0  0  0  0
    6.7737   -0.4023   19.0882 C   0  0  0  0  0  0  0  0  0  0  0  0
    5.8238    0.5828   19.2493 N   0  0  0  0  0  0  0  0  0  0  0  0
    5.5417    1.0069   17.9824 C   0  0  0  0  0  0  0  0  0  0  0  0
    6.2275    0.3408   17.1023 N   0  0  0  0  0  0  0  0  0  0  0  0
    7.0065   -0.5753   17.7982 N   0  0  0  0  0  0  0  0  0  0  0  0
    5.1630    0.9919   20.5104 C   0  0  0  0  0  0  0  0  0  0  0  0
    3.9251    1.8171   20.4256 C   0  0  0  0  0  0  0  0  0  0  0  0
    5.2042    2.4269   20.9054 C   0  0  0  0  0  0  0  0  0  0  0  0
    8.1610   -2.1679   22.1098 H   0  0  0  0  0  0  0  0  0  0  0  0
   10.3827   -2.6443   22.1495 H   0  0  0  0  0  0  0  0  0  0  0  0
   10.4713   -1.3613   20.8954 H   0  0  0  0  0  0  0  0  0  0  0  0
   12.1557   -1.0992   22.7161 H   0  0  0  0  0  0  0  0  0  0  0  0
   11.0404    0.3000   22.5580 H   0  0  0  0  0  0  0  0  0  0  0  0
   10.0246    0.0978   26.4608 H   0  0  0  0  0  0  0  0  0  0  0  0
    7.7962    1.0225   26.9964 H   0  0  0  0  0  0  0  0  0  0  0  0
    6.3670   -0.1596   23.1532 H   0  0  0  0  0  0  0  0  0  0  0  0
    7.6187   -1.8580   20.1155 H   0  0  0  0  0  0  0  0  0  0  0  0
    4.8405    1.7927   17.7432 H   0  0  0  0  0  0  0  0  0  0  0  0
    5.2007    0.2644   21.3346 H   0  0  0  0  0  0  0  0  0  0  0  0
    3.5162    2.0968   19.4434 H   0  0  0  0  0  0  0  0  0  0  0  0
    3.0990    1.6444   21.1310 H   0  0  0  0  0  0  0  0  0  0  0  0
    5.7363    3.1558   20.2764 H   0  0  0  0  0  0  0  0  0  0  0  0
    5.3191    2.7032   21.9639 H   0  0  0  0  0  0  0  0  0  0  0  0
  1  2  2  0  0  0  0
  2  3  1  0  0  0  0
  2 14  1  0  0  0  0
  3  4  1  0  0  0  0
  3  7  1  0  0  0  0
  3 23  1  0  0  0  0
  4  5  1  0  0  0  0
  4 24  1  0  0  0  0
  4 25  1  0  0  0  0
  5  6  1  0  0  0  0
  5 26  1  0  0  0  0
  5 27  1  0  0  0  0
  6  8  1  0  0  0  0
  7  8  2  0  0  0  0
  7 11  1  0  0  0  0
  8  9  1  0  0  0  0
  9 10  2  0  0  0  0
  9 28  1  0  0  0  0
 10 12  1  0  0  0  0
 10 29  1  0  0  0  0
 11 12  2  0  0  0  0
 11 30  1  0  0  0  0
 12 13  1  0  0  0  0
 14 15  1  0  0  0  0
 14 31  1  0  0  0  0
 15 16  1  0  0  0  0
 15 19  2  0  0  0  0
 16 17  1  0  0  0  0
 16 20  1  0  0  0  0
 17 18  2  0  0  0  0
 17 32  1  0  0  0  0
 18 19  1  0  0  0  0
 20 21  1  0  0  0  0
 20 22  1  0  0  0  0
 20 33  1  0  0  0  0
 21 22  1  0  0  0  0
 21 34  1  0  0  0  0
 21 35  1  0  0  0  0
 22 36  1  0  0  0  0
 22 37  1  0  0  0  0
M  END
> <compound_name>
MAT-POS-968e8d9c-1

> <provenance>
{"isomeric_smiles": "c1cc2c(cc1Cl)[C@H](CCO2)C(=O)Nc3nncn3C4CC4", "inchi": "InChI=1S/C15H15ClN4O2/c16-9-1-4-13-12(7-9)11(5-6-22-13)14(21)18-15-19-17-8-20(15)10-2-3-10/h1,4,7-8,10-11H,2-3,5-6H2,(H,18,19,21)/t11-/m0/s1", "inchi_key": "MMSFMHOFPDOWCH-NSHDSACASA-N", "fixed_inchi": "InChI=1/C15H15ClN4O2/c16-9-1-4-13-12(7-9)11(5-6-22-13)14(21)18-15-19-17-8-20(15)10-2-3-10/h1,4,7-8,10-11H,2-3,5-6H2,(H,18,19,21)/t11-/m0/s1/f/h18H", "fixed_inchikey": "MMSFMHOFPDOWCH-FPCLSXBCNA-N"}

> <data_format>
sdf

$$$$
