LIG(A-305)
  -OEChem-06042511373D

 45 47  0     0  0  0  0  0  0999 V2000
    9.5697    1.0210   21.1037 O   0  0  0  0  0  0  0  0  0  0  0  0
    9.2856   -0.1500   21.3377 C   0  0  0  0  0  0  0  0  0  0  0  0
    8.1865   -0.7759   20.8558 N   0  0  0  0  0  0  0  0  0  0  0  0
    7.2385   -0.2037   19.9750 C   0  0  0  0  0  0  0  0  0  0  0  0
    6.0416    0.3284   20.4721 C   0  0  0  0  0  0  0  0  0  0  0  0
    5.6507    0.2184   21.9381 C   0  0  0  0  0  0  0  0  0  0  0  0
    4.6369    1.1535   22.5273 C   0  0  0  0  0  0  0  0  0  0  0  0
    6.0520    1.2593   22.9441 C   0  0  0  0  0  0  0  0  0  0  0  0
    5.1795    0.9475   19.5722 C   0  0  0  0  0  0  0  0  0  0  0  0
    5.5214    0.9925   18.2362 C   0  0  0  0  0  0  0  0  0  0  0  0
    6.6523    0.4834   17.7430 N   0  0  0  0  0  0  0  0  0  0  0  0
    7.4893   -0.1037   18.6059 C   0  0  0  0  0  0  0  0  0  0  0  0
   10.1756   -1.0211   22.2066 C   0  0  0  0  0  0  0  0  0  0  0  0
    9.4216   -1.8851   23.1077 N   0  3  0  0  0  0  0  0  0  0  0  0
    8.6578   -1.1020   24.0838 C   0  0  0  0  0  0  0  0  0  0  0  0
    7.7498   -2.0169   24.8778 C   0  0  0  0  0  0  0  0  0  0  0  0
   10.2976   -2.8192   23.8215 C   0  0  0  0  0  0  0  0  0  0  0  0
    9.4646   -3.7991   24.6376 C   0  0  0  0  0  0  0  0  0  0  0  0
    8.5388   -3.0750   25.5237 N   0  0  0  0  0  0  0  0  0  0  0  0
    8.3539   -3.3240   26.8397 C   0  0  0  0  0  0  0  0  0  0  0  0
    7.9921   -2.4340   27.5958 O   0  0  0  0  0  0  0  0  0  0  0  0
    8.5438   -4.7301   27.3257 C   0  0  0  0  0  0  0  0  0  0  0  0
    8.0317   -1.7201   21.1462 H   0  0  0  0  0  0  0  0  0  0  0  0
    5.6135   -0.8104   22.3257 H   0  0  0  0  0  0  0  0  0  0  0  0
    4.1887    1.9406   21.9030 H   0  0  0  0  0  0  0  0  0  0  0  0
    3.8842    0.7724   23.2332 H   0  0  0  0  0  0  0  0  0  0  0  0
    6.3494    0.9562   23.9588 H   0  0  0  0  0  0  0  0  0  0  0  0
    6.6539    2.1243   22.6287 H   0  0  0  0  0  0  0  0  0  0  0  0
    4.2546    1.3872   19.9151 H   0  0  0  0  0  0  0  0  0  0  0  0
    4.8348    1.4667   17.5505 H   0  0  0  0  0  0  0  0  0  0  0  0
    8.4080   -0.5225   18.2225 H   0  0  0  0  0  0  0  0  0  0  0  0
   10.7950   -1.6522   21.5523 H   0  0  0  0  0  0  0  0  0  0  0  0
   10.8252   -0.3685   22.8083 H   0  0  0  0  0  0  0  0  0  0  0  0
    8.7754   -2.4188   22.5622 H   0  0  0  0  0  0  0  0  0  0  0  0
    9.3529   -0.5936   24.7682 H   0  0  0  0  0  0  0  0  0  0  0  0
    8.0498   -0.3529   23.5555 H   0  0  0  0  0  0  0  0  0  0  0  0
    7.2269   -1.4313   25.6483 H   0  0  0  0  0  0  0  0  0  0  0  0
    7.0126   -2.4742   24.2016 H   0  0  0  0  0  0  0  0  0  0  0  0
   10.9053   -3.3766   23.0935 H   0  0  0  0  0  0  0  0  0  0  0  0
   10.9590   -2.2549   24.4954 H   0  0  0  0  0  0  0  0  0  0  0  0
    8.8862   -4.4389   23.9548 H   0  0  0  0  0  0  0  0  0  0  0  0
   10.1344   -4.4240   25.2466 H   0  0  0  0  0  0  0  0  0  0  0  0
    8.3110   -4.7821   28.3995 H   0  0  0  0  0  0  0  0  0  0  0  0
    7.8725   -5.4030   26.7721 H   0  0  0  0  0  0  0  0  0  0  0  0
    9.5874   -5.0368   27.1617 H   0  0  0  0  0  0  0  0  0  0  0  0
  1  2  2  0  0  0  0
  2  3  1  0  0  0  0
  2 13  1  0  0  0  0
  3  4  1  0  0  0  0
  3 23  1  0  0  0  0
  4  5  2  0  0  0  0
  4 12  1  0  0  0  0
  5  6  1  0  0  0  0
  5  9  1  0  0  0  0
  6  7  1  0  0  0  0
  6  8  1  0  0  0  0
  6 24  1  0  0  0  0
  7  8  1  0  0  0  0
  7 25  1  0  0  0  0
  7 26  1  0  0  0  0
  8 27  1  0  0  0  0
  8 28  1  0  0  0  0
  9 10  2  0  0  0  0
  9 29  1  0  0  0  0
 10 11  1  0  0  0  0
 10 30  1  0  0  0  0
 11 12  2  0  0  0  0
 12 31  1  0  0  0  0
 13 14  1  0  0  0  0
 13 32  1  0  0  0  0
 13 33  1  0  0  0  0
 14 15  1  0  0  0  0
 14 17  1  0  0  0  0
 14 34  1  0  0  0  0
 15 16  1  0  0  0  0
 15 35  1  0  0  0  0
 15 36  1  0  0  0  0
 16 19  1  0  0  0  0
 16 37  1  0  0  0  0
 16 38  1  0  0  0  0
 17 18  1  0  0  0  0
 17 39  1  0  0  0  0
 17 40  1  0  0  0  0
 18 19  1  0  0  0  0
 18 41  1  0  0  0  0
 18 42  1  0  0  0  0
 19 20  1  0  0  0  0
 20 21  2  0  0  0  0
 20 22  1  0  0  0  0
 22 43  1  0  0  0  0
 22 44  1  0  0  0  0
 22 45  1  0  0  0  0
M  CHG  1  14   1
M  END
> <compound_name>
EDJ-MED-3c65e9ce-2

> <provenance>
{"isomeric_smiles": "CC(=O)N1CC[NH+](CC1)CC(=O)Nc2cnccc2C3CC3", "inchi": "InChI=1S/C16H22N4O2/c1-12(21)20-8-6-19(7-9-20)11-16(22)18-15-10-17-5-4-14(15)13-2-3-13/h4-5,10,13H,2-3,6-9,11H2,1H3,(H,18,22)/p+1", "inchi_key": "QSGGZCHNCXCCMN-UHFFFAOYSA-O", "fixed_inchi": "InChI=1/C16H22N4O2/c1-12(21)20-8-6-19(7-9-20)11-16(22)18-15-10-17-5-4-14(15)13-2-3-13/h4-5,10,13H,2-3,6-9,11H2,1H3,(H,18,22)/p+1/fC16H23N4O2/h18-19H/q+1", "fixed_inchikey": "QSGGZCHNCXCCMN-CSGLBLDKNA-O"}

> <data_format>
sdf

$$$$
