LIG(A-306)
  -OEChem-06042511413D

 49 52  0     1  0  0  0  0  0999 V2000
   10.6841    2.9240   24.4523 O   0  0  0  0  0  0  0  0  0  0  0  0
   10.3498    1.7922   24.1456 C   0  0  0  0  0  0  0  0  0  0  0  0
    9.0599    1.3490   24.2985 N   0  0  0  0  0  0  0  0  0  0  0  0
    8.1255    2.1230   25.0894 C   0  0  0  0  0  0  0  0  0  0  0  0
    7.4989    3.3425   24.4356 C   0  0  0  0  0  0  0  0  0  0  0  0
    6.8005    4.1076   25.0955 O   0  0  0  0  0  0  0  0  0  0  0  0
    7.7231    3.5226   23.1385 N   0  0  0  0  0  0  0  0  0  0  0  0
    7.0582    4.5598   22.3717 C   0  0  0  0  0  0  0  0  0  0  0  0
   11.2759    0.8838   23.4570 C   0  0  0  0  0  0  0  0  0  0  0  0
   12.6226    1.2376   23.3477 C   0  0  0  0  0  0  0  0  0  0  0  0
   13.5039    0.4313   22.6546 C   0  0  0  0  0  0  0  0  0  0  0  0
   13.0405   -0.7369   22.0887 C   0  0  0  0  0  0  0  0  0  0  0  0
   14.1613   -1.7810   21.2584 Cl  0  0  0  0  0  0  0  0  0  0  0  0
   11.7088   -1.1036   22.1630 C   0  0  0  0  0  0  0  0  0  0  0  0
   10.8035   -0.2771   22.8302 C   0  0  0  0  0  0  0  0  0  0  0  0
    9.3209   -0.5870   22.8058 C   0  0  1  0  0  0  0  0  0  0  0  0
    8.6650   -0.0451   24.0745 C   0  0  0  0  0  0  0  0  0  0  0  0
    8.6963    0.1621   21.6265 C   0  0  0  0  0  0  0  0  0  0  0  0
    9.0845    1.2781   21.2781 O   0  0  0  0  0  0  0  0  0  0  0  0
    7.6709   -0.4778   21.0274 N   0  0  0  0  0  0  0  0  0  0  0  0
    6.9068   -0.0148   19.9378 C   0  0  0  0  0  0  0  0  0  0  0  0
    5.7634    0.8022   20.2060 C   0  0  0  0  0  0  0  0  0  0  0  0
    5.3051    1.1025   21.5125 C   0  0  0  0  0  0  0  0  0  0  0  0
    4.2188    1.9020   21.6596 C   0  0  0  0  0  0  0  0  0  0  0  0
    3.8045    2.1975   22.9201 F   0  0  0  0  0  0  0  0  0  0  0  0
    3.5248    2.4457   20.6053 C   0  0  0  0  0  0  0  0  0  0  0  0
    3.9431    2.1862   19.3340 C   0  0  0  0  0  0  0  0  0  0  0  0
    5.0654    1.3571   19.0958 C   0  0  0  0  0  0  0  0  0  0  0  0
    5.5457    1.0576   17.7982 C   0  0  0  0  0  0  0  0  0  0  0  0
    6.6052    0.3017   17.5504 N   0  0  0  0  0  0  0  0  0  0  0  0
    7.2562   -0.2148   18.6017 C   0  0  0  0  0  0  0  0  0  0  0  0
    7.3072    1.4501   25.3853 H   0  0  0  0  0  0  0  0  0  0  0  0
    8.6595    2.4677   25.9872 H   0  0  0  0  0  0  0  0  0  0  0  0
    8.3736    2.9217   22.6738 H   0  0  0  0  0  0  0  0  0  0  0  0
    7.3983    4.5188   21.3264 H   0  0  0  0  0  0  0  0  0  0  0  0
    5.9701    4.4030   22.4095 H   0  0  0  0  0  0  0  0  0  0  0  0
    7.3018    5.5441   22.7981 H   0  0  0  0  0  0  0  0  0  0  0  0
   12.9770    2.1479   23.8082 H   0  0  0  0  0  0  0  0  0  0  0  0
   14.5422    0.7123   22.5572 H   0  0  0  0  0  0  0  0  0  0  0  0
   11.3719   -2.0232   21.7078 H   0  0  0  0  0  0  0  0  0  0  0  0
    9.1488   -1.6694   22.7120 H   0  0  0  0  0  0  0  0  0  0  0  0
    7.5715   -0.0995   23.9690 H   0  0  0  0  0  0  0  0  0  0  0  0
    8.9812   -0.6539   24.9344 H   0  0  0  0  0  0  0  0  0  0  0  0
    7.4275   -1.3753   21.3952 H   0  0  0  0  0  0  0  0  0  0  0  0
    5.8124    0.7016   22.3776 H   0  0  0  0  0  0  0  0  0  0  0  0
    2.6607    3.0692   20.7813 H   0  0  0  0  0  0  0  0  0  0  0  0
    3.4120    2.6183   18.4988 H   0  0  0  0  0  0  0  0  0  0  0  0
    5.0136    1.4726   16.9550 H   0  0  0  0  0  0  0  0  0  0  0  0
    8.1179   -0.8337   18.3993 H   0  0  0  0  0  0  0  0  0  0  0  0
  1  2  2  0  0  0  0
  2  3  1  0  0  0  0
  2  9  1  0  0  0  0
  3  4  1  0  0  0  0
  3 17  1  0  0  0  0
  4  5  1  0  0  0  0
  4 32  1  0  0  0  0
  4 33  1  0  0  0  0
  5  6  2  0  0  0  0
  5  7  1  0  0  0  0
  7  8  1  0  0  0  0
  7 34  1  0  0  0  0
  8 35  1  0  0  0  0
  8 36  1  0  0  0  0
  8 37  1  0  0  0  0
  9 10  2  0  0  0  0
  9 15  1  0  0  0  0
 10 11  1  0  0  0  0
 10 38  1  0  0  0  0
 11 12  2  0  0  0  0
 11 39  1  0  0  0  0
 12 13  1  0  0  0  0
 12 14  1  0  0  0  0
 14 15  2  0  0  0  0
 14 40  1  0  0  0  0
 15 16  1  0  0  0  0
 16 17  1  0  0  0  0
 16 18  1  0  0  0  0
 16 41  1  0  0  0  0
 17 42  1  0  0  0  0
 17 43  1  0  0  0  0
 18 19  2  0  0  0  0
 18 20  1  0  0  0  0
 20 21  1  0  0  0  0
 20 44  1  0  0  0  0
 21 22  2  0  0  0  0
 21 31  1  0  0  0  0
 22 23  1  0  0  0  0
 22 28  1  0  0  0  0
 23 24  2  0  0  0  0
 23 45  1  0  0  0  0
 24 25  1  0  0  0  0
 24 26  1  0  0  0  0
 26 27  2  0  0  0  0
 26 46  1  0  0  0  0
 27 28  1  0  0  0  0
 27 47  1  0  0  0  0
 28 29  2  0  0  0  0
 29 30  1  0  0  0  0
 29 48  1  0  0  0  0
 30 31  2  0  0  0  0
 31 49  1  0  0  0  0
M  END
> <compound_name>
MAT-POS-e119ab4f-2

> <provenance>
{"isomeric_smiles": "CNC(=O)CN1C[C@H](c2cc(ccc2C1=O)Cl)C(=O)Nc3cncc4c3cc(cc4)F", "inchi": "InChI=1S/C22H18ClFN4O3/c1-25-20(29)11-28-10-18(17-6-13(23)3-5-15(17)22(28)31)21(30)27-19-9-26-8-12-2-4-14(24)7-16(12)19/h2-9,18H,10-11H2,1H3,(H,25,29)(H,27,30)/t18-/m1/s1", "inchi_key": "ZCROYMPHCXUWGH-GOSISDBHSA-N", "fixed_inchi": "InChI=1/C22H18ClFN4O3/c1-25-20(29)11-28-10-18(17-6-13(23)3-5-15(17)22(28)31)21(30)27-19-9-26-8-12-2-4-14(24)7-16(12)19/h2-9,18H,10-11H2,1H3,(H,25,29)(H,27,30)/t18-/m1/s1/f/h25,27H", "fixed_inchikey": "ZCROYMPHCXUWGH-JYEZJMDJNA-N"}

> <data_format>
sdf

$$$$
