LIG(A-305)
  -OEChem-06042511413D

 41 45  0     1  0  0  0  0  0999 V2000
    9.1308    1.3489   21.1043 O   0  0  0  0  0  0  0  0  0  0  0  0
    8.7307    0.3080   21.5904 C   0  0  0  0  0  0  0  0  0  0  0  0
    9.2448   -0.3540   22.8884 C   0  0  2  0  0  0  0  0  0  0  0  0
    8.6419    0.3911   24.0974 C   0  0  0  0  0  0  0  0  0  0  0  0
    9.4640    1.6030   24.4813 C   0  0  0  0  0  0  0  0  0  0  0  0
   10.8140    1.2379   24.7832 O   0  0  0  0  0  0  0  0  0  0  0  0
   10.7668   -0.2771   22.8803 C   0  0  0  0  0  0  0  0  0  0  0  0
   11.4459    0.5678   23.7672 C   0  0  0  0  0  0  0  0  0  0  0  0
   12.8139    0.7557   23.6941 C   0  0  0  0  0  0  0  0  0  0  0  0
   13.5418    0.0597   22.7501 C   0  0  0  0  0  0  0  0  0  0  0  0
   11.5207   -0.9902   21.9492 C   0  0  0  0  0  0  0  0  0  0  0  0
   12.8947   -0.8253   21.9171 C   0  0  0  0  0  0  0  0  0  0  0  0
   13.8415   -1.8334   20.8611 Cl  0  0  0  0  0  0  0  0  0  0  0  0
    7.7846   -0.5550   21.0555 N   0  0  0  0  0  0  0  0  0  0  0  0
    7.7386   -1.7639   21.7595 C   0  0  0  0  0  0  0  0  0  0  0  0
    6.9505   -2.6739   21.5526 O   0  0  0  0  0  0  0  0  0  0  0  0
    8.6587   -1.6830   22.7494 N   0  0  0  0  0  0  0  0  0  0  0  0
    6.8886   -0.1889   19.9895 C   0  0  0  0  0  0  0  0  0  0  0  0
    5.7157    0.5602   20.2976 C   0  0  0  0  0  0  0  0  0  0  0  0
    5.1798    0.7082   21.6026 C   0  0  0  0  0  0  0  0  0  0  0  0
    4.0258    1.4083   21.8146 C   0  0  0  0  0  0  0  0  0  0  0  0
    3.3538    1.9984   20.7557 C   0  0  0  0  0  0  0  0  0  0  0  0
    3.8387    1.9043   19.4816 C   0  0  0  0  0  0  0  0  0  0  0  0
    5.0287    1.1822   19.2176 C   0  0  0  0  0  0  0  0  0  0  0  0
    5.5696    1.0251   17.9155 C   0  0  0  0  0  0  0  0  0  0  0  0
    6.6665    0.3330   17.6405 N   0  0  0  0  0  0  0  0  0  0  0  0
    7.2985   -0.2570   18.6635 C   0  0  0  0  0  0  0  0  0  0  0  0
    7.6235    0.7188   23.8413 H   0  0  0  0  0  0  0  0  0  0  0  0
    8.6010   -0.2969   24.9547 H   0  0  0  0  0  0  0  0  0  0  0  0
    9.4639    2.3165   23.6441 H   0  0  0  0  0  0  0  0  0  0  0  0
    9.0138    2.0763   25.3663 H   0  0  0  0  0  0  0  0  0  0  0  0
   13.3076    1.4398   24.3685 H   0  0  0  0  0  0  0  0  0  0  0  0
   14.6083    0.2078   22.6657 H   0  0  0  0  0  0  0  0  0  0  0  0
   11.0369   -1.6654   21.2590 H   0  0  0  0  0  0  0  0  0  0  0  0
    8.9117   -2.4580   23.3285 H   0  0  0  0  0  0  0  0  0  0  0  0
    5.6919    0.2606   22.4416 H   0  0  0  0  0  0  0  0  0  0  0  0
    3.6337    1.5029   22.8165 H   0  0  0  0  0  0  0  0  0  0  0  0
    2.4368    2.5384   20.9395 H   0  0  0  0  0  0  0  0  0  0  0  0
    3.3112    2.3837   18.6703 H   0  0  0  0  0  0  0  0  0  0  0  0
    5.0538    1.5005   17.0944 H   0  0  0  0  0  0  0  0  0  0  0  0
    8.1896   -0.8258   18.4421 H   0  0  0  0  0  0  0  0  0  0  0  0
  1  2  2  0  0  0  0
  2  3  1  0  0  0  0
  2 14  1  0  0  0  0
  3  4  1  0  0  0  0
  3  7  1  0  0  0  0
  3 17  1  0  0  0  0
  4  5  1  0  0  0  0
  4 28  1  0  0  0  0
  4 29  1  0  0  0  0
  5  6  1  0  0  0  0
  5 30  1  0  0  0  0
  5 31  1  0  0  0  0
  6  8  1  0  0  0  0
  7  8  2  0  0  0  0
  7 11  1  0  0  0  0
  8  9  1  0  0  0  0
  9 10  2  0  0  0  0
  9 32  1  0  0  0  0
 10 12  1  0  0  0  0
 10 33  1  0  0  0  0
 11 12  2  0  0  0  0
 11 34  1  0  0  0  0
 12 13  1  0  0  0  0
 14 15  1  0  0  0  0
 14 18  1  0  0  0  0
 15 16  2  0  0  0  0
 15 17  1  0  0  0  0
 17 35  1  0  0  0  0
 18 19  2  0  0  0  0
 18 27  1  0  0  0  0
 19 20  1  0  0  0  0
 19 24  1  0  0  0  0
 20 21  2  0  0  0  0
 20 36  1  0  0  0  0
 21 22  1  0  0  0  0
 21 37  1  0  0  0  0
 22 23  2  0  0  0  0
 22 38  1  0  0  0  0
 23 24  1  0  0  0  0
 23 39  1  0  0  0  0
 24 25  2  0  0  0  0
 25 26  1  0  0  0  0
 25 40  1  0  0  0  0
 26 27  2  0  0  0  0
 27 41  1  0  0  0  0
M  END
> <compound_name>
VLA-UCB-29506327-1

> <provenance>
{"isomeric_smiles": "c1ccc2c(c1)cncc2N3C(=O)[C@@]4(CCOc5c4cc(cc5)Cl)NC3=O", "inchi": "InChI=1S/C20H14ClN3O3/c21-13-5-6-17-15(9-13)20(7-8-27-17)18(25)24(19(26)23-20)16-11-22-10-12-3-1-2-4-14(12)16/h1-6,9-11H,7-8H2,(H,23,26)/t20-/m0/s1", "inchi_key": "FSSOHAWMSBZQQQ-FQEVSTJZSA-N", "fixed_inchi": "InChI=1/C20H14ClN3O3/c21-13-5-6-17-15(9-13)20(7-8-27-17)18(25)24(19(26)23-20)16-11-22-10-12-3-1-2-4-14(12)16/h1-6,9-11H,7-8H2,(H,23,26)/t20-/m0/s1/f/h23H", "fixed_inchikey": "FSSOHAWMSBZQQQ-LVSCZHILNA-N"}

> <data_format>
sdf

$$$$
