LIG(A-306)
  -OEChem-06042511403D

 43 46  0     1  0  0  0  0  0999 V2000
    3.8432    2.3134   23.0681 F   0  0  0  0  0  0  0  0  0  0  0  0
    4.2831    2.0115   21.8200 C   0  0  0  0  0  0  0  0  0  0  0  0
    3.5279    2.4325   20.7521 C   0  0  0  0  0  0  0  0  0  0  0  0
    3.9298    2.1116   19.4911 C   0  0  0  0  0  0  0  0  0  0  0  0
    5.4261    1.2887   21.6958 C   0  0  0  0  0  0  0  0  0  0  0  0
    5.8730    0.9288   20.3988 C   0  0  0  0  0  0  0  0  0  0  0  0
    5.1088    1.3567   19.2759 C   0  0  0  0  0  0  0  0  0  0  0  0
    5.5797    1.0148   17.9858 C   0  0  0  0  0  0  0  0  0  0  0  0
    6.6907    0.3299   17.7546 N   0  0  0  0  0  0  0  0  0  0  0  0
    7.3979   -0.0760   18.8165 C   0  0  0  0  0  0  0  0  0  0  0  0
    7.0630    0.1739   20.1506 C   0  0  0  0  0  0  0  0  0  0  0  0
    7.8672   -0.2221   21.2445 N   0  0  0  0  0  0  0  0  0  0  0  0
    9.0332    0.3530   21.6283 C   0  0  0  0  0  0  0  0  0  0  0  0
    9.5230    1.3221   21.0653 O   0  0  0  0  0  0  0  0  0  0  0  0
    9.7324   -0.2390   22.8942 C   0  0  1  0  0  0  0  0  0  0  0  0
    9.2366   -1.5660   23.0792 O   0  0  0  0  0  0  0  0  0  0  0  0
    9.9206   -2.6329   22.4081 C   0  0  0  0  0  0  0  0  0  0  0  0
   11.2444   -0.1268   22.8830 C   0  0  0  0  0  0  0  0  0  0  0  0
   12.0043   -0.6947   21.8619 C   0  0  0  0  0  0  0  0  0  0  0  0
   13.3693   -0.4756   21.8307 C   0  0  0  0  0  0  0  0  0  0  0  0
   14.3333   -1.3464   20.6726 Cl  0  0  0  0  0  0  0  0  0  0  0  0
   13.9964    0.3465   22.7417 C   0  0  0  0  0  0  0  0  0  0  0  0
   13.2534    0.9244   23.7558 C   0  0  0  0  0  0  0  0  0  0  0  0
   11.8945    0.6642   23.8330 C   0  0  0  0  0  0  0  0  0  0  0  0
   11.2466    1.1871   24.9251 O   0  0  0  0  0  0  0  0  0  0  0  0
    9.8875    1.5760   24.6613 C   0  0  0  0  0  0  0  0  0  0  0  0
    9.0565    0.4429   24.0953 C   0  0  0  0  0  0  0  0  0  0  0  0
    2.6288    3.0094   20.9105 H   0  0  0  0  0  0  0  0  0  0  0  0
    3.3424    2.4366   18.6449 H   0  0  0  0  0  0  0  0  0  0  0  0
    5.9859    0.9926   22.5707 H   0  0  0  0  0  0  0  0  0  0  0  0
    4.9959    1.3325   17.1345 H   0  0  0  0  0  0  0  0  0  0  0  0
    8.2984   -0.6414   18.6275 H   0  0  0  0  0  0  0  0  0  0  0  0
    7.5456   -0.9991   21.7855 H   0  0  0  0  0  0  0  0  0  0  0  0
    9.4296   -3.5889   22.6427 H   0  0  0  0  0  0  0  0  0  0  0  0
    9.8900   -2.4620   21.3219 H   0  0  0  0  0  0  0  0  0  0  0  0
   10.9674   -2.6662   22.7447 H   0  0  0  0  0  0  0  0  0  0  0  0
   11.5317   -1.2999   21.1024 H   0  0  0  0  0  0  0  0  0  0  0  0
   15.0565    0.5377   22.6649 H   0  0  0  0  0  0  0  0  0  0  0  0
   13.7275    1.5711   24.4794 H   0  0  0  0  0  0  0  0  0  0  0  0
    9.4287    1.9134   25.6023 H   0  0  0  0  0  0  0  0  0  0  0  0
    9.8923    2.4047   23.9379 H   0  0  0  0  0  0  0  0  0  0  0  0
    8.8988   -0.3072   24.8842 H   0  0  0  0  0  0  0  0  0  0  0  0
    8.0850    0.8450   23.7722 H   0  0  0  0  0  0  0  0  0  0  0  0
  1  2  1  0  0  0  0
  2  3  2  0  0  0  0
  2  5  1  0  0  0  0
  3  4  1  0  0  0  0
  3 28  1  0  0  0  0
  4  7  2  0  0  0  0
  4 29  1  0  0  0  0
  5  6  2  0  0  0  0
  5 30  1  0  0  0  0
  6  7  1  0  0  0  0
  6 11  1  0  0  0  0
  7  8  1  0  0  0  0
  8  9  2  0  0  0  0
  8 31  1  0  0  0  0
  9 10  1  0  0  0  0
 10 11  2  0  0  0  0
 10 32  1  0  0  0  0
 11 12  1  0  0  0  0
 12 13  1  0  0  0  0
 12 33  1  0  0  0  0
 13 14  2  0  0  0  0
 13 15  1  0  0  0  0
 15 16  1  0  0  0  0
 15 18  1  0  0  0  0
 15 27  1  0  0  0  0
 16 17  1  0  0  0  0
 17 34  1  0  0  0  0
 17 35  1  0  0  0  0
 17 36  1  0  0  0  0
 18 19  2  0  0  0  0
 18 24  1  0  0  0  0
 19 20  1  0  0  0  0
 19 37  1  0  0  0  0
 20 21  1  0  0  0  0
 20 22  2  0  0  0  0
 22 23  1  0  0  0  0
 22 38  1  0  0  0  0
 23 24  2  0  0  0  0
 23 39  1  0  0  0  0
 24 25  1  0  0  0  0
 25 26  1  0  0  0  0
 26 27  1  0  0  0  0
 26 40  1  0  0  0  0
 26 41  1  0  0  0  0
 27 42  1  0  0  0  0
 27 43  1  0  0  0  0
M  END
> <compound_name>
EDJ-MED-611d11e7-4

> <provenance>
{"isomeric_smiles": "CO[C@]1(CCOc2c1cc(cc2)Cl)C(=O)Nc3cncc4c3cc(cc4)F", "inchi": "InChI=1S/C20H16ClFN2O3/c1-26-20(6-7-27-18-5-3-13(21)8-16(18)20)19(25)24-17-11-23-10-12-2-4-14(22)9-15(12)17/h2-5,8-11H,6-7H2,1H3,(H,24,25)/t20-/m0/s1", "inchi_key": "PAPXBUNGDDTTOJ-FQEVSTJZSA-N", "fixed_inchi": "InChI=1/C20H16ClFN2O3/c1-26-20(6-7-27-18-5-3-13(21)8-16(18)20)19(25)24-17-11-23-10-12-2-4-14(22)9-15(12)17/h2-5,8-11H,6-7H2,1H3,(H,24,25)/t20-/m0/s1/f/h24H", "fixed_inchikey": "PAPXBUNGDDTTOJ-ZSWWDKBRNA-N"}

> <data_format>
sdf

$$$$
