LIG(A-306)
  -OEChem-06042511393D

 43 46  0     1  0  0  0  0  0999 V2000
    9.1467    1.2425   21.0226 O   0  0  0  0  0  0  0  0  0  0  0  0
    8.6372    0.2242   21.4808 C   0  0  0  0  0  0  0  0  0  0  0  0
    9.1715   -0.4526   22.7924 C   0  0  1  0  0  0  0  0  0  0  0  0
   10.6677   -0.3072   22.9707 C   0  0  0  0  0  0  0  0  0  0  0  0
   11.5529   -0.9866   22.1389 C   0  0  0  0  0  0  0  0  0  0  0  0
   12.9150   -0.8193   22.2953 C   0  0  0  0  0  0  0  0  0  0  0  0
   14.0079   -1.5401   21.1584 Cl  0  0  0  0  0  0  0  0  0  0  0  0
   13.3970    0.0064   23.2905 C   0  0  0  0  0  0  0  0  0  0  0  0
   14.7331    0.1637   23.4249 F   0  0  0  0  0  0  0  0  0  0  0  0
   12.5588    0.6988   24.1281 C   0  0  0  0  0  0  0  0  0  0  0  0
   11.1966    0.5374   23.9588 C   0  0  0  0  0  0  0  0  0  0  0  0
   10.4065    1.2399   24.8344 O   0  0  0  0  0  0  0  0  0  0  0  0
    9.0770    1.5091   24.3572 C   0  0  0  0  0  0  0  0  0  0  0  0
    8.3856    0.2343   23.9230 C   0  0  0  0  0  0  0  0  0  0  0  0
    8.8354   -1.8369   22.6020 O   0  0  0  0  0  0  0  0  0  0  0  0
    8.9925   -2.7040   23.7313 C   0  0  0  0  0  0  0  0  0  0  0  0
    7.5497   -0.3707   20.9439 N   0  0  0  0  0  0  0  0  0  0  0  0
    6.7856    0.0795   19.8449 C   0  0  0  0  0  0  0  0  0  0  0  0
    5.6428    0.9049   20.0986 C   0  0  0  0  0  0  0  0  0  0  0  0
    5.1991    1.2590   21.3995 C   0  0  0  0  0  0  0  0  0  0  0  0
    4.1212    2.0813   21.5742 C   0  0  0  0  0  0  0  0  0  0  0  0
    3.4332    2.5884   20.4820 C   0  0  0  0  0  0  0  0  0  0  0  0
    3.8189    2.2743   19.2111 C   0  0  0  0  0  0  0  0  0  0  0  0
    4.9327    1.4260   18.9824 C   0  0  0  0  0  0  0  0  0  0  0  0
    5.3964    1.0878   17.6886 C   0  0  0  0  0  0  0  0  0  0  0  0
    6.4482    0.3175   17.4518 N   0  0  0  0  0  0  0  0  0  0  0  0
    7.1123   -0.1667   18.5110 C   0  0  0  0  0  0  0  0  0  0  0  0
   11.1745   -1.6449   21.3709 H   0  0  0  0  0  0  0  0  0  0  0  0
   12.9513    1.3494   24.8957 H   0  0  0  0  0  0  0  0  0  0  0  0
    8.4938    1.9774   25.1637 H   0  0  0  0  0  0  0  0  0  0  0  0
    9.1350    2.1961   23.5002 H   0  0  0  0  0  0  0  0  0  0  0  0
    8.3165   -0.4496   24.7818 H   0  0  0  0  0  0  0  0  0  0  0  0
    7.3742    0.4762   23.5645 H   0  0  0  0  0  0  0  0  0  0  0  0
    8.7029   -3.7276   23.4514 H   0  0  0  0  0  0  0  0  0  0  0  0
   10.0434   -2.6962   24.0560 H   0  0  0  0  0  0  0  0  0  0  0  0
    8.3519   -2.3539   24.5542 H   0  0  0  0  0  0  0  0  0  0  0  0
    7.2529   -1.2243   21.3720 H   0  0  0  0  0  0  0  0  0  0  0  0
    5.7203    0.8735   22.2632 H   0  0  0  0  0  0  0  0  0  0  0  0
    3.8020    2.3387   22.5733 H   0  0  0  0  0  0  0  0  0  0  0  0
    2.5845    3.2378   20.6386 H   0  0  0  0  0  0  0  0  0  0  0  0
    3.2710    2.6755   18.3714 H   0  0  0  0  0  0  0  0  0  0  0  0
    4.8584    1.4832   16.8396 H   0  0  0  0  0  0  0  0  0  0  0  0
    7.9674   -0.7970   18.3164 H   0  0  0  0  0  0  0  0  0  0  0  0
  1  2  2  0  0  0  0
  2  3  1  0  0  0  0
  2 17  1  0  0  0  0
  3  4  1  0  0  0  0
  3 14  1  0  0  0  0
  3 15  1  0  0  0  0
  4  5  2  0  0  0  0
  4 11  1  0  0  0  0
  5  6  1  0  0  0  0
  5 28  1  0  0  0  0
  6  7  1  0  0  0  0
  6  8  2  0  0  0  0
  8  9  1  0  0  0  0
  8 10  1  0  0  0  0
 10 11  2  0  0  0  0
 10 29  1  0  0  0  0
 11 12  1  0  0  0  0
 12 13  1  0  0  0  0
 13 14  1  0  0  0  0
 13 30  1  0  0  0  0
 13 31  1  0  0  0  0
 14 32  1  0  0  0  0
 14 33  1  0  0  0  0
 15 16  1  0  0  0  0
 16 34  1  0  0  0  0
 16 35  1  0  0  0  0
 16 36  1  0  0  0  0
 17 18  1  0  0  0  0
 17 37  1  0  0  0  0
 18 19  2  0  0  0  0
 18 27  1  0  0  0  0
 19 20  1  0  0  0  0
 19 24  1  0  0  0  0
 20 21  2  0  0  0  0
 20 38  1  0  0  0  0
 21 22  1  0  0  0  0
 21 39  1  0  0  0  0
 22 23  2  0  0  0  0
 22 40  1  0  0  0  0
 23 24  1  0  0  0  0
 23 41  1  0  0  0  0
 24 25  2  0  0  0  0
 25 26  1  0  0  0  0
 25 42  1  0  0  0  0
 26 27  2  0  0  0  0
 27 43  1  0  0  0  0
M  END
> <compound_name>
ALP-POS-fe871b40-11

> <provenance>
{"isomeric_smiles": "CO[C@]1(CCOc2c1cc(c(c2)F)Cl)C(=O)Nc3cncc4c3cccc4", "inchi": "InChI=1S/C20H16ClFN2O3/c1-26-20(6-7-27-18-9-16(22)15(21)8-14(18)20)19(25)24-17-11-23-10-12-4-2-3-5-13(12)17/h2-5,8-11H,6-7H2,1H3,(H,24,25)/t20-/m0/s1", "inchi_key": "FBLHAFJQTKYFLC-FQEVSTJZSA-N", "fixed_inchi": "InChI=1/C20H16ClFN2O3/c1-26-20(6-7-27-18-9-16(22)15(21)8-14(18)20)19(25)24-17-11-23-10-12-4-2-3-5-13(12)17/h2-5,8-11H,6-7H2,1H3,(H,24,25)/t20-/m0/s1/f/h24H", "fixed_inchikey": "FBLHAFJQTKYFLC-ZSWWDKBRNA-N"}

> <data_format>
sdf

$$$$
