LIG(A-303)
  -OEChem-06042511353D

 90 96  0     0  0  0  0  0  0999 V2000
    6.7917    1.0721   16.7313 O   0  0  0  0  0  0  0  0  0  0  0  0
    6.1941    0.8034   17.7776 C   0  0  0  0  0  0  0  0  0  0  0  0
    6.4249   -0.3757   18.5405 C   0  0  0  0  0  0  0  0  0  0  0  0
    5.2837    1.6868   18.2990 N   0  0  0  0  0  0  0  0  0  0  0  0
    4.6172    1.5041   19.5063 C   0  0  0  0  0  0  0  0  0  0  0  0
    4.8820    0.3540   20.2742 C   0  0  0  0  0  0  0  0  0  0  0  0
    4.2435    0.1893   21.5015 C   0  0  0  0  0  0  0  0  0  0  0  0
    3.3192    1.1267   21.9299 C   0  0  0  0  0  0  0  0  0  0  0  0
    3.0363    2.2338   21.1571 C   0  0  0  0  0  0  0  0  0  0  0  0
    3.6878    2.4405   19.9538 C   0  0  0  0  0  0  0  0  0  0  0  0
    5.8233   -0.6165   19.7337 C   0  0  0  0  0  0  0  0  0  0  0  0
    6.1461   -1.8536   20.4726 C   0  0  0  0  0  0  0  0  0  0  0  0
    5.2838   -2.7022   20.6550 O   0  0  0  0  0  0  0  0  0  0  0  0
    7.3833   -1.9912   20.9580 N   0  0  0  0  0  0  0  0  0  0  0  0
    8.6516   -1.2558   20.9944 C   0  0  0  0  0  0  0  0  0  0  0  0
    7.8192   -3.0294   21.8948 C   0  0  0  0  0  0  0  0  0  0  0  0
    9.1716   -2.2980   22.0032 C   0  0  0  0  0  0  0  0  0  0  0  0
    9.5165   -1.7922   23.3170 N   0  0  0  0  0  0  0  0  0  0  0  0
   10.5570   -0.9307   23.5455 C   0  0  0  0  0  0  0  0  0  0  0  0
   10.5648   -0.2307   24.7595 C   0  0  0  0  0  0  0  0  0  0  0  0
    9.5201   -0.5292   25.5890 O   0  0  0  0  0  0  0  0  0  0  0  0
    9.3650    0.2369   26.7831 C   0  0  0  0  0  0  0  0  0  0  0  0
   11.5946   -0.7371   22.6341 C   0  0  0  0  0  0  0  0  0  0  0  0
   12.6242    0.1414   22.9446 C   0  0  0  0  0  0  0  0  0  0  0  0
   12.6190    0.8294   24.1426 C   0  0  0  0  0  0  0  0  0  0  0  0
   11.5894    0.6549   25.0551 C   0  0  0  0  0  0  0  0  0  0  0  0
    6.1995    0.7243   25.3176 O   0  0  0  0  0  0  0  0  0  0  0  0
    6.4165    1.5692   24.4375 C   0  0  0  0  0  0  0  0  0  0  0  0
    7.6002    1.6047   23.6449 C   0  0  0  0  0  0  0  0  0  0  0  0
    5.5019    2.5607   24.1919 N   0  0  0  0  0  0  0  0  0  0  0  0
    5.6719    3.5726   23.2508 C   0  0  0  0  0  0  0  0  0  0  0  0
    6.8465    3.6011   22.4693 C   0  0  0  0  0  0  0  0  0  0  0  0
    7.0075    4.6060   21.5152 C   0  0  0  0  0  0  0  0  0  0  0  0
    6.0159    5.5574   21.3387 C   0  0  0  0  0  0  0  0  0  0  0  0
    4.8753    5.5370   22.1212 C   0  0  0  0  0  0  0  0  0  0  0  0
    4.6952    4.5530   23.0793 C   0  0  0  0  0  0  0  0  0  0  0  0
    7.8352    2.5526   22.6988 C   0  0  0  0  0  0  0  0  0  0  0  0
    9.0898    2.4660   21.9113 C   0  0  0  0  0  0  0  0  0  0  0  0
    9.0700    1.9961   20.7833 O   0  0  0  0  0  0  0  0  0  0  0  0
   10.2202    2.9045   22.4737 N   0  0  0  0  0  0  0  0  0  0  0  0
   10.5351    3.8064   23.5856 C   0  0  0  0  0  0  0  0  0  0  0  0
   11.4520    3.2140   21.7422 C   0  0  0  0  0  0  0  0  0  0  0  0
   11.8890    4.1127   22.9120 C   0  0  0  0  0  0  0  0  0  0  0  0
   12.1395    5.5056   22.6019 N   0  0  0  0  0  0  0  0  0  0  0  0
   11.8763    6.5087   23.4870 C   0  0  0  0  0  0  0  0  0  0  0  0
   10.9306    7.4672   23.1245 C   0  0  0  0  0  0  0  0  0  0  0  0
   10.2359    7.1715   21.9848 O   0  0  0  0  0  0  0  0  0  0  0  0
    8.9491    7.7561   21.8204 C   0  0  0  0  0  0  0  0  0  0  0  0
   12.5660    6.6454   24.6897 C   0  0  0  0  0  0  0  0  0  0  0  0
   12.3448    7.7575   25.4818 C   0  0  0  0  0  0  0  0  0  0  0  0
   11.4471    8.7289   25.0862 C   0  0  0  0  0  0  0  0  0  0  0  0
   10.7205    8.5863   23.9166 C   0  0  0  0  0  0  0  0  0  0  0  0
    7.1109   -1.1138   18.1519 H   0  0  0  0  0  0  0  0  0  0  0  0
    5.0866    2.5170   17.7789 H   0  0  0  0  0  0  0  0  0  0  0  0
    4.4693   -0.6685   22.1178 H   0  0  0  0  0  0  0  0  0  0  0  0
    2.8160    0.9902   22.8757 H   0  0  0  0  0  0  0  0  0  0  0  0
    2.2986    2.9467   21.4946 H   0  0  0  0  0  0  0  0  0  0  0  0
    3.4773    3.3216   19.3657 H   0  0  0  0  0  0  0  0  0  0  0  0
    9.1949   -1.2361   20.0382 H   0  0  0  0  0  0  0  0  0  0  0  0
    8.5748   -0.2336   21.3936 H   0  0  0  0  0  0  0  0  0  0  0  0
    7.2453   -3.0675   22.8323 H   0  0  0  0  0  0  0  0  0  0  0  0
    7.8802   -4.0384   21.4609 H   0  0  0  0  0  0  0  0  0  0  0  0
    9.9797   -2.9007   21.5631 H   0  0  0  0  0  0  0  0  0  0  0  0
    8.7330   -1.6592   23.9240 H   0  0  0  0  0  0  0  0  0  0  0  0
    8.4859   -0.1223   27.3382 H   0  0  0  0  0  0  0  0  0  0  0  0
   10.2633    0.1270   27.4083 H   0  0  0  0  0  0  0  0  0  0  0  0
    9.2265    1.2967   26.5233 H   0  0  0  0  0  0  0  0  0  0  0  0
   11.5974   -1.2670   21.6929 H   0  0  0  0  0  0  0  0  0  0  0  0
   13.4340    0.2877   22.2452 H   0  0  0  0  0  0  0  0  0  0  0  0
   13.4256    1.5104   24.3710 H   0  0  0  0  0  0  0  0  0  0  0  0
   11.5859    1.2029   25.9857 H   0  0  0  0  0  0  0  0  0  0  0  0
    8.3474    0.8412   23.8035 H   0  0  0  0  0  0  0  0  0  0  0  0
    4.6541    2.5557   24.7148 H   0  0  0  0  0  0  0  0  0  0  0  0
    7.9045    4.6424   20.9147 H   0  0  0  0  0  0  0  0  0  0  0  0
    6.1344    6.3211   20.5843 H   0  0  0  0  0  0  0  0  0  0  0  0
    4.1183    6.2950   21.9839 H   0  0  0  0  0  0  0  0  0  0  0  0
    3.8042    4.5452   23.6896 H   0  0  0  0  0  0  0  0  0  0  0  0
    9.8640    4.6738   23.6702 H   0  0  0  0  0  0  0  0  0  0  0  0
   10.6172    3.3094   24.5636 H   0  0  0  0  0  0  0  0  0  0  0  0
   12.1058    2.3466   21.5687 H   0  0  0  0  0  0  0  0  0  0  0  0
   11.2936    3.7492   20.7943 H   0  0  0  0  0  0  0  0  0  0  0  0
   12.7176    3.6543   23.4715 H   0  0  0  0  0  0  0  0  0  0  0  0
   12.0055    5.7503   21.6416 H   0  0  0  0  0  0  0  0  0  0  0  0
    8.5164    7.4283   20.8637 H   0  0  0  0  0  0  0  0  0  0  0  0
    8.2947    7.4399   22.6461 H   0  0  0  0  0  0  0  0  0  0  0  0
    9.0412    8.8523   21.8246 H   0  0  0  0  0  0  0  0  0  0  0  0
   13.2692    5.8874   25.0017 H   0  0  0  0  0  0  0  0  0  0  0  0
   12.8774    7.8666   26.4150 H   0  0  0  0  0  0  0  0  0  0  0  0
   11.3102    9.6098   25.6960 H   0  0  0  0  0  0  0  0  0  0  0  0
    9.9999    9.3360   23.6248 H   0  0  0  0  0  0  0  0  0  0  0  0
  1  2  2  0  0  0  0
  2  3  1  0  0  0  0
  2  4  1  0  0  0  0
  3 11  2  0  0  0  0
  3 53  1  0  0  0  0
  4  5  1  0  0  0  0
  4 54  1  0  0  0  0
  5  6  2  0  0  0  0
  5 10  1  0  0  0  0
  6  7  1  0  0  0  0
  6 11  1  0  0  0  0
  7  8  2  0  0  0  0
  7 55  1  0  0  0  0
  8  9  1  0  0  0  0
  8 56  1  0  0  0  0
  9 10  2  0  0  0  0
  9 57  1  0  0  0  0
 10 58  1  0  0  0  0
 11 12  1  0  0  0  0
 12 13  2  0  0  0  0
 12 14  1  0  0  0  0
 14 15  1  0  0  0  0
 14 16  1  0  0  0  0
 15 17  1  0  0  0  0
 15 59  1  0  0  0  0
 15 60  1  0  0  0  0
 16 17  1  0  0  0  0
 16 61  1  0  0  0  0
 16 62  1  0  0  0  0
 17 18  1  0  0  0  0
 17 63  1  0  0  0  0
 18 19  1  0  0  0  0
 18 64  1  0  0  0  0
 19 20  2  0  0  0  0
 19 23  1  0  0  0  0
 20 21  1  0  0  0  0
 20 26  1  0  0  0  0
 21 22  1  0  0  0  0
 22 65  1  0  0  0  0
 22 66  1  0  0  0  0
 22 67  1  0  0  0  0
 23 24  2  0  0  0  0
 23 68  1  0  0  0  0
 24 25  1  0  0  0  0
 24 69  1  0  0  0  0
 25 26  2  0  0  0  0
 25 70  1  0  0  0  0
 26 71  1  0  0  0  0
 27 28  2  0  0  0  0
 28 29  1  0  0  0  0
 28 30  1  0  0  0  0
 29 37  2  0  0  0  0
 29 72  1  0  0  0  0
 30 31  1  0  0  0  0
 30 73  1  0  0  0  0
 31 32  2  0  0  0  0
 31 36  1  0  0  0  0
 32 33  1  0  0  0  0
 32 37  1  0  0  0  0
 33 34  2  0  0  0  0
 33 74  1  0  0  0  0
 34 35  1  0  0  0  0
 34 75  1  0  0  0  0
 35 36  2  0  0  0  0
 35 76  1  0  0  0  0
 36 77  1  0  0  0  0
 37 38  1  0  0  0  0
 38 39  2  0  0  0  0
 38 40  1  0  0  0  0
 40 41  1  0  0  0  0
 40 42  1  0  0  0  0
 41 43  1  0  0  0  0
 41 78  1  0  0  0  0
 41 79  1  0  0  0  0
 42 43  1  0  0  0  0
 42 80  1  0  0  0  0
 42 81  1  0  0  0  0
 43 44  1  0  0  0  0
 43 82  1  0  0  0  0
 44 45  1  0  0  0  0
 44 83  1  0  0  0  0
 45 46  2  0  0  0  0
 45 49  1  0  0  0  0
 46 47  1  0  0  0  0
 46 52  1  0  0  0  0
 47 48  1  0  0  0  0
 48 84  1  0  0  0  0
 48 85  1  0  0  0  0
 48 86  1  0  0  0  0
 49 50  2  0  0  0  0
 49 87  1  0  0  0  0
 50 51  1  0  0  0  0
 50 88  1  0  0  0  0
 51 52  2  0  0  0  0
 51 89  1  0  0  0  0
 52 90  1  0  0  0  0
M  END
> <compound_name>
ERI-UCB-a0b0dbcb-8

> <provenance>
{"isomeric_smiles": "COc1ccccc1NC2CN(C2)C(=O)c3cc(=O)[nH]c4c3cccc4.COc1ccccc1NC2CN(C2)C(=O)c3cc(=O)[nH]c4c3cccc4", "inchi": "InChI=1S/2C20H19N3O3/c2*1-26-18-9-5-4-8-17(18)21-13-11-23(12-13)20(25)15-10-19(24)22-16-7-3-2-6-14(15)16/h2*2-10,13,21H,11-12H2,1H3,(H,22,24)", "inchi_key": "CGLVWBOTPZJTAX-UHFFFAOYSA-N", "fixed_inchi": "InChI=1/2C20H19N3O3/c2*1-26-18-9-5-4-8-17(18)21-13-11-23(12-13)20(25)15-10-19(24)22-16-7-3-2-6-14(15)16/h2*2-10,13,21H,11-12H2,1H3,(H,22,24)/f/h2*22H", "fixed_inchikey": "CGLVWBOTPZJTAX-BGIVNOGWNA-N"}

> <data_format>
sdf

$$$$
