LIG(A-305)
  -OEChem-06042511333D

 14 13  0     0  0  0  0  0  0999 V2000
   10.2631   -5.8011   25.0964 N   0  3  0  0  0  0  0  0  0  0  0  0
    8.8222   -3.5490   23.3684 C   0  0  0  0  0  0  0  0  0  0  0  0
    8.2101   -4.7890   24.0214 C   0  0  0  0  0  0  0  0  0  0  0  0
    9.1001   -5.2470   25.1774 C   0  0  0  0  0  0  0  0  0  0  0  0
    8.5862   -5.0380   26.4484 N   0  0  0  0  0  0  0  0  0  0  0  0
   10.7529   -6.0596   25.9290 H   0  0  0  0  0  0  0  0  0  0  0  0
   10.6743   -5.9718   24.2010 H   0  0  0  0  0  0  0  0  0  0  0  0
    8.1827   -3.2186   22.5366 H   0  0  0  0  0  0  0  0  0  0  0  0
    8.9003   -2.7433   24.1132 H   0  0  0  0  0  0  0  0  0  0  0  0
    9.8243   -3.7931   22.9859 H   0  0  0  0  0  0  0  0  0  0  0  0
    7.2082   -4.5452   24.4042 H   0  0  0  0  0  0  0  0  0  0  0  0
    8.1321   -5.5950   23.2769 H   0  0  0  0  0  0  0  0  0  0  0  0
    9.1132   -5.3134   27.2524 H   0  0  0  0  0  0  0  0  0  0  0  0
    7.6886   -4.6118   26.5609 H   0  0  0  0  0  0  0  0  0  0  0  0
  1  4  2  0  0  0  0
  1  6  1  0  0  0  0
  1  7  1  0  0  0  0
  2  3  1  0  0  0  0
  2  8  1  0  0  0  0
  2  9  1  0  0  0  0
  2 10  1  0  0  0  0
  3  4  1  0  0  0  0
  3 11  1  0  0  0  0
  3 12  1  0  0  0  0
  4  5  1  0  0  0  0
  5 13  1  0  0  0  0
  5 14  1  0  0  0  0
M  CHG  1   1   1
M  END
> <compound_name>
AAR-POS-d2a4d1df-17

> <provenance>
{"isomeric_smiles": "CCC(=[NH2+])N", "inchi": "InChI=1S/C3H8N2/c1-2-3(4)5/h2H2,1H3,(H3,4,5)/p+1", "inchi_key": "GNFWGDKKNWGGJY-UHFFFAOYSA-O", "fixed_inchi": "InChI=1/C3H8N2/c1-2-3(4)5/h2H2,1H3,(H3,4,5)/p+1/fC3H9N2/h4-5H2/q+1", "fixed_inchikey": "GNFWGDKKNWGGJY-AOWFOHKVNA-O"}

> <data_format>
sdf

$$$$
