LIG(A-306)
  -OEChem-06042511423D

 55 58  0     1  0  0  0  0  0999 V2000
   10.4891    2.6483   24.6823 O   0  0  0  0  0  0  0  0  0  0  0  0
   10.2124    1.5278   24.2978 C   0  0  0  0  0  0  0  0  0  0  0  0
    8.9443    1.0080   24.4296 N   0  0  0  0  0  0  0  0  0  0  0  0
    8.0229    1.6124   25.3749 C   0  0  0  0  0  0  0  0  0  0  0  0
    7.2756    2.8603   24.9304 C   0  0  0  0  0  0  0  0  0  0  0  0
    6.2306    3.2039   25.4814 O   0  0  0  0  0  0  0  0  0  0  0  0
    7.8278    3.5381   23.9236 N   0  0  0  0  0  0  0  0  0  0  0  0
    7.2764    3.5371   22.5767 C   0  0  0  0  0  0  0  0  0  0  0  0
    6.2588    4.6343   22.3815 C   0  0  0  0  0  0  0  0  0  0  0  0
    6.8839    6.0116   22.4582 C   0  0  0  0  0  0  0  0  0  0  0  0
   11.1923    0.7092   23.5644 C   0  0  0  0  0  0  0  0  0  0  0  0
   12.5143    1.1497   23.4702 C   0  0  0  0  0  0  0  0  0  0  0  0
   13.4374    0.4393   22.7293 C   0  0  0  0  0  0  0  0  0  0  0  0
   13.0426   -0.7227   22.1047 C   0  0  0  0  0  0  0  0  0  0  0  0
   14.2003   -1.6035   21.1469 Cl  0  0  0  0  0  0  0  0  0  0  0  0
   11.7406   -1.1831   22.1798 C   0  0  0  0  0  0  0  0  0  0  0  0
   10.7865   -0.4404   22.8768 C   0  0  0  0  0  0  0  0  0  0  0  0
    9.3167   -0.7886   22.7685 C   0  0  1  0  0  0  0  0  0  0  0  0
    8.6020   -0.3673   24.0519 C   0  0  0  0  0  0  0  0  0  0  0  0
    8.7051    0.0026   21.6067 C   0  0  0  0  0  0  0  0  0  0  0  0
    9.1953    1.0565   21.2037 O   0  0  0  0  0  0  0  0  0  0  0  0
    7.5787   -0.5392   21.0763 N   0  0  0  0  0  0  0  0  0  0  0  0
    6.8044   -0.0431   20.0030 C   0  0  0  0  0  0  0  0  0  0  0  0
    5.6343    0.7351   20.2863 C   0  0  0  0  0  0  0  0  0  0  0  0
    5.0991    0.9068   21.5893 C   0  0  0  0  0  0  0  0  0  0  0  0
    3.9778    1.6534   21.7954 C   0  0  0  0  0  0  0  0  0  0  0  0
    3.3639    2.2561   20.7216 C   0  0  0  0  0  0  0  0  0  0  0  0
    2.2446    2.9975   20.9556 F   0  0  0  0  0  0  0  0  0  0  0  0
    3.8062    2.1415   19.4428 C   0  0  0  0  0  0  0  0  0  0  0  0
    4.9573    1.3531   19.1945 C   0  0  0  0  0  0  0  0  0  0  0  0
    5.4664    1.1254   17.8922 C   0  0  0  0  0  0  0  0  0  0  0  0
    6.5296    0.3814   17.6262 N   0  0  0  0  0  0  0  0  0  0  0  0
    7.1667   -0.1823   18.6632 C   0  0  0  0  0  0  0  0  0  0  0  0
    7.2705    0.8526   25.6328 H   0  0  0  0  0  0  0  0  0  0  0  0
    8.5998    1.8768   26.2735 H   0  0  0  0  0  0  0  0  0  0  0  0
    8.6560    4.0696   24.1015 H   0  0  0  0  0  0  0  0  0  0  0  0
    8.0960    3.6807   21.8573 H   0  0  0  0  0  0  0  0  0  0  0  0
    6.7922    2.5668   22.3919 H   0  0  0  0  0  0  0  0  0  0  0  0
    5.7904    4.5120   21.3937 H   0  0  0  0  0  0  0  0  0  0  0  0
    5.4909    4.5494   23.1646 H   0  0  0  0  0  0  0  0  0  0  0  0
    6.1070    6.7762   22.3106 H   0  0  0  0  0  0  0  0  0  0  0  0
    7.3499    6.1481   23.4452 H   0  0  0  0  0  0  0  0  0  0  0  0
    7.6494    6.1108   21.6744 H   0  0  0  0  0  0  0  0  0  0  0  0
   12.8164    2.0523   23.9804 H   0  0  0  0  0  0  0  0  0  0  0  0
   14.4551    0.7900   22.6409 H   0  0  0  0  0  0  0  0  0  0  0  0
   11.4640   -2.1114   21.7021 H   0  0  0  0  0  0  0  0  0  0  0  0
    9.1898   -1.8682   22.5999 H   0  0  0  0  0  0  0  0  0  0  0  0
    7.5154   -0.4353   23.8950 H   0  0  0  0  0  0  0  0  0  0  0  0
    8.8982   -1.0459   24.8654 H   0  0  0  0  0  0  0  0  0  0  0  0
    7.2592   -1.3896   21.4945 H   0  0  0  0  0  0  0  0  0  0  0  0
    5.5880    0.4385   22.4307 H   0  0  0  0  0  0  0  0  0  0  0  0
    3.5754    1.7706   22.7907 H   0  0  0  0  0  0  0  0  0  0  0  0
    3.2926    2.6396   18.6338 H   0  0  0  0  0  0  0  0  0  0  0  0
    4.9541    1.5888   17.0620 H   0  0  0  0  0  0  0  0  0  0  0  0
    8.0297   -0.7931   18.4431 H   0  0  0  0  0  0  0  0  0  0  0  0
  1  2  2  0  0  0  0
  2  3  1  0  0  0  0
  2 11  1  0  0  0  0
  3  4  1  0  0  0  0
  3 19  1  0  0  0  0
  4  5  1  0  0  0  0
  4 34  1  0  0  0  0
  4 35  1  0  0  0  0
  5  6  2  0  0  0  0
  5  7  1  0  0  0  0
  7  8  1  0  0  0  0
  7 36  1  0  0  0  0
  8  9  1  0  0  0  0
  8 37  1  0  0  0  0
  8 38  1  0  0  0  0
  9 10  1  0  0  0  0
  9 39  1  0  0  0  0
  9 40  1  0  0  0  0
 10 41  1  0  0  0  0
 10 42  1  0  0  0  0
 10 43  1  0  0  0  0
 11 12  2  0  0  0  0
 11 17  1  0  0  0  0
 12 13  1  0  0  0  0
 12 44  1  0  0  0  0
 13 14  2  0  0  0  0
 13 45  1  0  0  0  0
 14 15  1  0  0  0  0
 14 16  1  0  0  0  0
 16 17  2  0  0  0  0
 16 46  1  0  0  0  0
 17 18  1  0  0  0  0
 18 19  1  0  0  0  0
 18 20  1  0  0  0  0
 18 47  1  0  0  0  0
 19 48  1  0  0  0  0
 19 49  1  0  0  0  0
 20 21  2  0  0  0  0
 20 22  1  0  0  0  0
 22 23  1  0  0  0  0
 22 50  1  0  0  0  0
 23 24  2  0  0  0  0
 23 33  1  0  0  0  0
 24 25  1  0  0  0  0
 24 30  1  0  0  0  0
 25 26  2  0  0  0  0
 25 51  1  0  0  0  0
 26 27  1  0  0  0  0
 26 52  1  0  0  0  0
 27 28  1  0  0  0  0
 27 29  2  0  0  0  0
 29 30  1  0  0  0  0
 29 53  1  0  0  0  0
 30 31  2  0  0  0  0
 31 32  1  0  0  0  0
 31 54  1  0  0  0  0
 32 33  2  0  0  0  0
 33 55  1  0  0  0  0
M  END
> <compound_name>
EDJ-MED-e69ed63d-13

> <provenance>
{"isomeric_smiles": "CCCNC(=O)CN1C[C@H](c2cc(ccc2C1=O)Cl)C(=O)Nc3cncc4c3ccc(c4)F", "inchi": "InChI=1S/C24H22ClFN4O3/c1-2-7-28-22(31)13-30-12-20(19-9-15(25)3-5-18(19)24(30)33)23(32)29-21-11-27-10-14-8-16(26)4-6-17(14)21/h3-6,8-11,20H,2,7,12-13H2,1H3,(H,28,31)(H,29,32)/t20-/m1/s1", "inchi_key": "GHTWIRSPUGHMTO-HXUWFJFHSA-N", "fixed_inchi": "InChI=1/C24H22ClFN4O3/c1-2-7-28-22(31)13-30-12-20(19-9-15(25)3-5-18(19)24(30)33)23(32)29-21-11-27-10-14-8-16(26)4-6-17(14)21/h3-6,8-11,20H,2,7,12-13H2,1H3,(H,28,31)(H,29,32)/t20-/m1/s1/f/h28-29H", "fixed_inchikey": "GHTWIRSPUGHMTO-MYQJGEHCNA-N"}

> <data_format>
sdf

$$$$
