LIG(A-306)
  -OEChem-06042511393D

 45 48  0     1  0  0  0  0  0999 V2000
   14.2394   -1.6086   20.8923 Cl  0  0  0  0  0  0  0  0  0  0  0  0
   13.1714   -0.7849   21.9960 C   0  0  0  0  0  0  0  0  0  0  0  0
   13.6761    0.2195   22.7929 C   0  0  0  0  0  0  0  0  0  0  0  0
   12.8068    0.9727   23.5605 C   0  0  0  0  0  0  0  0  0  0  0  0
   11.8204   -1.0710   21.9588 C   0  0  0  0  0  0  0  0  0  0  0  0
   10.9291   -0.3089   22.7124 C   0  0  0  0  0  0  0  0  0  0  0  0
   11.4478    0.6985   23.5312 C   0  0  0  0  0  0  0  0  0  0  0  0
   10.6826    1.4130   24.4238 O   0  0  0  0  0  0  0  0  0  0  0  0
    9.2475    1.3147   24.2973 C   0  0  0  0  0  0  0  0  0  0  0  0
    8.7812   -0.0760   23.9461 C   0  0  0  0  0  0  0  0  0  0  0  0
    9.4320   -0.5291   22.6342 C   0  0  1  0  0  0  0  0  0  0  0  0
    8.8198    0.2049   21.4386 C   0  0  0  0  0  0  0  0  0  0  0  0
    9.2284    1.3023   21.0614 O   0  0  0  0  0  0  0  0  0  0  0  0
    7.7693   -0.4301   20.8687 N   0  0  0  0  0  0  0  0  0  0  0  0
    6.9193    0.0361   19.8457 C   0  0  0  0  0  0  0  0  0  0  0  0
    7.1340   -0.1671   18.4818 C   0  0  0  0  0  0  0  0  0  0  0  0
    6.3810    0.3452   17.4997 N   0  0  0  0  0  0  0  0  0  0  0  0
    5.3503    1.0987   17.8485 C   0  0  0  0  0  0  0  0  0  0  0  0
    5.8016    0.8457   20.2224 C   0  0  0  0  0  0  0  0  0  0  0  0
    4.9975    1.3979   19.1863 C   0  0  0  0  0  0  0  0  0  0  0  0
    3.9058    2.2324   19.5340 C   0  0  0  0  0  0  0  0  0  0  0  0
    3.6161    2.4976   20.8408 C   0  0  0  0  0  0  0  0  0  0  0  0
    5.4709    1.1419   21.5663 C   0  0  0  0  0  0  0  0  0  0  0  0
    4.3951    1.9423   21.8480 C   0  0  0  0  0  0  0  0  0  0  0  0
    3.9467    2.1910   23.5390 S   0  0  0  0  0  0  0  0  0  0  0  0
    2.6129    1.6913   23.7261 O   0  0  0  0  0  0  0  0  0  0  0  0
    4.9925    1.6535   24.3649 O   0  0  0  0  0  0  0  0  0  0  0  0
    3.9238    3.9344   23.7312 C   0  0  0  0  0  0  0  0  0  0  0  0
   14.7378    0.4161   22.8177 H   0  0  0  0  0  0  0  0  0  0  0  0
   13.1851    1.7718   24.1807 H   0  0  0  0  0  0  0  0  0  0  0  0
   11.4557   -1.8832   21.3474 H   0  0  0  0  0  0  0  0  0  0  0  0
    8.7904    1.6064   25.2544 H   0  0  0  0  0  0  0  0  0  0  0  0
    8.9170    2.0052   23.5075 H   0  0  0  0  0  0  0  0  0  0  0  0
    9.0636   -0.7696   24.7518 H   0  0  0  0  0  0  0  0  0  0  0  0
    7.6874   -0.0752   23.8293 H   0  0  0  0  0  0  0  0  0  0  0  0
    9.2444   -1.6059   22.5107 H   0  0  0  0  0  0  0  0  0  0  0  0
    7.5711   -1.3461   21.2176 H   0  0  0  0  0  0  0  0  0  0  0  0
    7.9721   -0.7853   18.1961 H   0  0  0  0  0  0  0  0  0  0  0  0
    4.7382    1.5125   17.0607 H   0  0  0  0  0  0  0  0  0  0  0  0
    3.2954    2.6640   18.7546 H   0  0  0  0  0  0  0  0  0  0  0  0
    2.7831    3.1376   21.0915 H   0  0  0  0  0  0  0  0  0  0  0  0
    6.0671    0.7367   22.3705 H   0  0  0  0  0  0  0  0  0  0  0  0
    3.6509    4.1861   24.7666 H   0  0  0  0  0  0  0  0  0  0  0  0
    4.9206    4.3412   23.5056 H   0  0  0  0  0  0  0  0  0  0  0  0
    3.1856    4.3695   23.0414 H   0  0  0  0  0  0  0  0  0  0  0  0
  1  2  1  0  0  0  0
  2  3  2  0  0  0  0
  2  5  1  0  0  0  0
  3  4  1  0  0  0  0
  3 29  1  0  0  0  0
  4  7  2  0  0  0  0
  4 30  1  0  0  0  0
  5  6  2  0  0  0  0
  5 31  1  0  0  0  0
  6  7  1  0  0  0  0
  6 11  1  0  0  0  0
  7  8  1  0  0  0  0
  8  9  1  0  0  0  0
  9 10  1  0  0  0  0
  9 32  1  0  0  0  0
  9 33  1  0  0  0  0
 10 11  1  0  0  0  0
 10 34  1  0  0  0  0
 10 35  1  0  0  0  0
 11 12  1  0  0  0  0
 11 36  1  0  0  0  0
 12 13  2  0  0  0  0
 12 14  1  0  0  0  0
 14 15  1  0  0  0  0
 14 37  1  0  0  0  0
 15 16  2  0  0  0  0
 15 19  1  0  0  0  0
 16 17  1  0  0  0  0
 16 38  1  0  0  0  0
 17 18  2  0  0  0  0
 18 20  1  0  0  0  0
 18 39  1  0  0  0  0
 19 20  2  0  0  0  0
 19 23  1  0  0  0  0
 20 21  1  0  0  0  0
 21 22  2  0  0  0  0
 21 40  1  0  0  0  0
 22 24  1  0  0  0  0
 22 41  1  0  0  0  0
 23 24  2  0  0  0  0
 23 42  1  0  0  0  0
 24 25  1  0  0  0  0
 25 26  2  0  0  0  0
 25 27  2  0  0  0  0
 25 28  1  0  0  0  0
 28 43  1  0  0  0  0
 28 44  1  0  0  0  0
 28 45  1  0  0  0  0
M  END
> <compound_name>
BEN-DND-c852c98b-5

> <provenance>
{"isomeric_smiles": "CS(=O)(=O)c1ccc2cncc(c2c1)NC(=O)[C@@H]3CCOc4c3cc(cc4)Cl", "inchi": "InChI=1S/C20H17ClN2O4S/c1-28(25,26)14-4-2-12-10-22-11-18(16(12)9-14)23-20(24)15-6-7-27-19-5-3-13(21)8-17(15)19/h2-5,8-11,15H,6-7H2,1H3,(H,23,24)/t15-/m1/s1", "inchi_key": "ULOCCHXCKCKCRD-OAHLLOKOSA-N", "fixed_inchi": "InChI=1/C20H17ClN2O4S/c1-28(25,26)14-4-2-12-10-22-11-18(16(12)9-14)23-20(24)15-6-7-27-19-5-3-13(21)8-17(15)19/h2-5,8-11,15H,6-7H2,1H3,(H,23,24)/t15-/m1/s1/f/h23H", "fixed_inchikey": "ULOCCHXCKCKCRD-UEBCHADLNA-N"}

> <data_format>
sdf

$$$$
