LIG(A-307)
  -OEChem-06042511373D

 42 45  0     1  0  0  0  0  0999 V2000
   10.6619    1.2664   24.6844 O   0  0  0  0  0  0  0  0  0  0  0  0
    5.2364    1.1566   21.5191 C   0  0  0  0  0  0  0  0  0  0  0  0
    9.3701   -0.6088   22.8111 C   0  0  1  0  0  0  0  0  0  0  0  0
    4.1520    1.9739   21.6743 C   0  0  0  0  0  0  0  0  0  0  0  0
    3.5089    2.5106   20.5700 C   0  0  0  0  0  0  0  0  0  0  0  0
    3.9443    2.2251   19.3075 C   0  0  0  0  0  0  0  0  0  0  0  0
   14.1441   -1.6068   20.9628 Cl  0  0  0  0  0  0  0  0  0  0  0  0
    5.0567    1.3760   19.1012 C   0  0  0  0  0  0  0  0  0  0  0  0
    5.5660    1.0624   17.8166 C   0  0  0  0  0  0  0  0  0  0  0  0
    7.2707   -0.1782   18.6753 C   0  0  0  0  0  0  0  0  0  0  0  0
    9.3533    1.0957   21.1015 O   0  0  0  0  0  0  0  0  0  0  0  0
    6.8902    0.0400   19.9974 C   0  0  0  0  0  0  0  0  0  0  0  0
    8.7854    0.1195   21.5767 C   0  0  0  0  0  0  0  0  0  0  0  0
    9.0404   -2.0430   22.7569 N   0  3  0  0  0  0  0  0  0  0  0  0
    7.6274   -0.4050   21.1112 N   0  0  0  0  0  0  0  0  0  0  0  0
    5.7287    0.8360   20.2285 C   0  0  0  0  0  0  0  0  0  0  0  0
   10.8736   -0.3651   22.8892 C   0  0  0  0  0  0  0  0  0  0  0  0
   11.7402   -1.0716   22.0586 C   0  0  0  0  0  0  0  0  0  0  0  0
   13.0808   -0.7441   22.0422 C   0  0  0  0  0  0  0  0  0  0  0  0
   13.5978    0.2569   22.8401 C   0  0  0  0  0  0  0  0  0  0  0  0
   12.7582    0.9312   23.7065 C   0  0  0  0  0  0  0  0  0  0  0  0
   11.4105    0.6117   23.7340 C   0  0  0  0  0  0  0  0  0  0  0  0
    9.2420    1.3415   24.4118 C   0  0  0  0  0  0  0  0  0  0  0  0
    6.6325    0.3064   17.6017 N   0  0  0  0  0  0  0  0  0  0  0  0
    8.6564   -0.0056   24.0411 C   0  0  0  0  0  0  0  0  0  0  0  0
    5.7252    0.7492   22.3918 H   0  0  0  0  0  0  0  0  0  0  0  0
    3.7928    2.2036   22.6665 H   0  0  0  0  0  0  0  0  0  0  0  0
    2.6570    3.1597   20.7090 H   0  0  0  0  0  0  0  0  0  0  0  0
    3.4337    2.6523   18.4571 H   0  0  0  0  0  0  0  0  0  0  0  0
    5.0514    1.4657   16.9570 H   0  0  0  0  0  0  0  0  0  0  0  0
    8.1475   -0.7846   18.5024 H   0  0  0  0  0  0  0  0  0  0  0  0
    9.7597   -2.5683   23.2115 H   0  0  0  0  0  0  0  0  0  0  0  0
    8.1684   -2.2021   23.2199 H   0  0  0  0  0  0  0  0  0  0  0  0
    8.9689   -2.3326   21.8025 H   0  0  0  0  0  0  0  0  0  0  0  0
    7.2576   -1.1891   21.6097 H   0  0  0  0  0  0  0  0  0  0  0  0
   11.3664   -1.8687   21.4330 H   0  0  0  0  0  0  0  0  0  0  0  0
   14.6464    0.5103   22.7879 H   0  0  0  0  0  0  0  0  0  0  0  0
   13.1492    1.7003   24.3563 H   0  0  0  0  0  0  0  0  0  0  0  0
    8.7286    1.7155   25.3099 H   0  0  0  0  0  0  0  0  0  0  0  0
    9.0782    2.0400   23.5781 H   0  0  0  0  0  0  0  0  0  0  0  0
    8.7692   -0.6921   24.8932 H   0  0  0  0  0  0  0  0  0  0  0  0
    7.5882    0.1194   23.8099 H   0  0  0  0  0  0  0  0  0  0  0  0
  1 22  1  0  0  0  0
  1 23  1  0  0  0  0
  2  4  2  0  0  0  0
  2 16  1  0  0  0  0
  2 26  1  0  0  0  0
  3 13  1  0  0  0  0
  3 14  1  0  0  0  0
  3 17  1  0  0  0  0
  3 25  1  0  0  0  0
  4  5  1  0  0  0  0
  4 27  1  0  0  0  0
  5  6  2  0  0  0  0
  5 28  1  0  0  0  0
  6  8  1  0  0  0  0
  6 29  1  0  0  0  0
  7 19  1  0  0  0  0
  8  9  2  0  0  0  0
  8 16  1  0  0  0  0
  9 24  1  0  0  0  0
  9 30  1  0  0  0  0
 10 12  1  0  0  0  0
 10 24  2  0  0  0  0
 10 31  1  0  0  0  0
 11 13  2  0  0  0  0
 12 15  1  0  0  0  0
 12 16  2  0  0  0  0
 13 15  1  0  0  0  0
 14 32  1  0  0  0  0
 14 33  1  0  0  0  0
 14 34  1  0  0  0  0
 15 35  1  0  0  0  0
 17 18  2  0  0  0  0
 17 22  1  0  0  0  0
 18 19  1  0  0  0  0
 18 36  1  0  0  0  0
 19 20  2  0  0  0  0
 20 21  1  0  0  0  0
 20 37  1  0  0  0  0
 21 22  2  0  0  0  0
 21 38  1  0  0  0  0
 23 25  1  0  0  0  0
 23 39  1  0  0  0  0
 23 40  1  0  0  0  0
 25 41  1  0  0  0  0
 25 42  1  0  0  0  0
M  CHG  1  14   1
M  END
> <compound_name>
EDG-MED-971238d3-4

> <provenance>
{"isomeric_smiles": "c1ccc2c(c1)cncc2NC(=O)[C@@]3(CCOc4c3cc(cc4)Cl)[NH3+]", "inchi": "InChI=1S/C19H16ClN3O2/c20-13-5-6-17-15(9-13)19(21,7-8-25-17)18(24)23-16-11-22-10-12-3-1-2-4-14(12)16/h1-6,9-11H,7-8,21H2,(H,23,24)/p+1/t19-/m0/s1", "inchi_key": "RPJBJMKATYTDKW-IBGZPJMESA-O", "fixed_inchi": "InChI=1/C19H16ClN3O2/c20-13-5-6-17-15(9-13)19(21,7-8-25-17)18(24)23-16-11-22-10-12-3-1-2-4-14(12)16/h1-6,9-11H,7-8,21H2,(H,23,24)/p+1/t19-/m0/s1/fC19H17ClN3O2/h21,23H/q+1", "fixed_inchikey": "RPJBJMKATYTDKW-VXPPFQIANA-O"}

> <data_format>
sdf

$$$$
