LIG(A-306)
  -OEChem-06042511393D

 49 53  0     1  0  0  0  0  0999 V2000
    8.4760    1.0563   21.4003 O   0  0  0  0  0  0  0  0  0  0  0  0
    8.2490   -0.1488   21.3116 C   0  0  0  0  0  0  0  0  0  0  0  0
    7.5600   -0.6926   20.2901 N   0  0  0  0  0  0  0  0  0  0  0  0
    6.5503   -0.1520   19.4651 C   0  0  0  0  0  0  0  0  0  0  0  0
    5.5827    0.7888   19.9594 C   0  0  0  0  0  0  0  0  0  0  0  0
    5.2239    0.9121   21.3266 C   0  0  0  0  0  0  0  0  0  0  0  0
    4.2083    1.7387   21.7181 C   0  0  0  0  0  0  0  0  0  0  0  0
    3.5004    2.4841   20.7855 C   0  0  0  0  0  0  0  0  0  0  0  0
    3.8082    2.4059   19.4584 C   0  0  0  0  0  0  0  0  0  0  0  0
    4.8508    1.5552   19.0088 C   0  0  0  0  0  0  0  0  0  0  0  0
    5.1425    1.3559   17.6389 C   0  0  0  0  0  0  0  0  0  0  0  0
    6.0161    0.4762   17.1826 N   0  0  0  0  0  0  0  0  0  0  0  0
    6.6750   -0.2633   18.0812 C   0  0  0  0  0  0  0  0  0  0  0  0
    8.8559   -1.1662   22.2797 C   0  0  1  0  0  0  0  0  0  0  0  0
   10.2602   -0.7385   22.6557 C   0  0  0  0  0  0  0  0  0  0  0  0
   10.4491    0.2202   23.6589 C   0  0  0  0  0  0  0  0  0  0  0  0
   11.7254    0.6898   23.9590 C   0  0  0  0  0  0  0  0  0  0  0  0
   12.8228    0.1667   23.2968 C   0  0  0  0  0  0  0  0  0  0  0  0
   11.3736   -1.2685   22.0086 C   0  0  0  0  0  0  0  0  0  0  0  0
   12.6349   -0.8149   22.3447 C   0  0  0  0  0  0  0  0  0  0  0  0
   14.0202   -1.5022   21.5425 Cl  0  0  0  0  0  0  0  0  0  0  0  0
    8.0191   -1.2970   23.5697 C   0  0  0  0  0  0  0  0  0  0  0  0
    8.0078    0.0113   24.3635 C   0  0  0  0  0  0  0  0  0  0  0  0
    9.3308    0.6435   24.4632 N   0  0  3  0  0  0  0  0  0  0  0  0
    9.3855    1.8629   25.2501 C   0  0  0  0  0  0  0  0  0  0  0  0
    9.7738    1.5913   26.6682 C   0  0  0  0  0  0  0  0  0  0  0  0
   10.6652    0.6900   27.0809 N   0  0  0  0  0  0  0  0  0  0  0  0
   10.7505    0.7263   28.4458 N   0  0  0  0  0  0  0  0  0  0  0  0
    9.8978    1.6579   28.8100 C   0  0  0  0  0  0  0  0  0  0  0  0
    9.2498    2.2441   27.7706 N   0  0  0  0  0  0  0  0  0  0  0  0
    7.8053   -1.6391   20.0807 H   0  0  0  0  0  0  0  0  0  0  0  0
    5.7623    0.3433   22.0702 H   0  0  0  0  0  0  0  0  0  0  0  0
    3.9536    1.8127   22.7651 H   0  0  0  0  0  0  0  0  0  0  0  0
    2.6998    3.1310   21.1127 H   0  0  0  0  0  0  0  0  0  0  0  0
    3.2535    2.9965   18.7443 H   0  0  0  0  0  0  0  0  0  0  0  0
    4.6158    1.9636   16.9179 H   0  0  0  0  0  0  0  0  0  0  0  0
    7.3601   -1.0080   17.7037 H   0  0  0  0  0  0  0  0  0  0  0  0
    8.8988   -2.1477   21.7850 H   0  0  0  0  0  0  0  0  0  0  0  0
   11.8585    1.4590   24.7053 H   0  0  0  0  0  0  0  0  0  0  0  0
   13.8168    0.5233   23.5231 H   0  0  0  0  0  0  0  0  0  0  0  0
   11.2523   -2.0279   21.2503 H   0  0  0  0  0  0  0  0  0  0  0  0
    6.9858   -1.5613   23.3006 H   0  0  0  0  0  0  0  0  0  0  0  0
    8.4495   -2.0920   24.1963 H   0  0  0  0  0  0  0  0  0  0  0  0
    7.3217    0.7141   23.8681 H   0  0  0  0  0  0  0  0  0  0  0  0
    7.6447   -0.2005   25.3801 H   0  0  0  0  0  0  0  0  0  0  0  0
   10.1252    2.5428   24.8024 H   0  0  0  0  0  0  0  0  0  0  0  0
    8.3943    2.3396   25.2374 H   0  0  0  0  0  0  0  0  0  0  0  0
    9.7282    1.9318   29.8408 H   0  0  0  0  0  0  0  0  0  0  0  0
    8.5623    2.9698   27.7955 H   0  0  0  0  0  0  0  0  0  0  0  0
  1  2  2  0  0  0  0
  2  3  1  0  0  0  0
  2 14  1  0  0  0  0
  3  4  1  0  0  0  0
  4  5  2  0  0  0  0
  4 13  1  0  0  0  0
  5  6  1  0  0  0  0
  5 10  1  0  0  0  0
  6  7  2  0  0  0  0
  7  8  1  0  0  0  0
  8  9  2  0  0  0  0
  9 10  1  0  0  0  0
 10 11  2  0  0  0  0
 11 12  1  0  0  0  0
 12 13  2  0  0  0  0
 14 15  1  0  0  0  0
 14 22  1  0  0  0  0
 15 16  2  0  0  0  0
 15 19  1  0  0  0  0
 16 17  1  0  0  0  0
 16 24  1  0  0  0  0
 17 18  2  0  0  0  0
 18 20  1  0  0  0  0
 19 20  2  0  0  0  0
 20 21  1  0  0  0  0
 22 23  1  0  0  0  0
 23 24  1  0  0  0  0
 24 25  1  0  0  0  0
 25 26  1  0  0  0  0
 26 27  2  0  0  0  0
 26 30  1  0  0  0  0
 27 28  1  0  0  0  0
 28 29  2  0  0  0  0
 29 30  1  0  0  0  0
  3 31  1  0  0  0  0
  6 32  1  0  0  0  0
  7 33  1  0  0  0  0
  8 34  1  0  0  0  0
  9 35  1  0  0  0  0
 11 36  1  0  0  0  0
 13 37  1  0  0  0  0
 14 38  1  0  0  0  0
 17 39  1  0  0  0  0
 18 40  1  0  0  0  0
 19 41  1  0  0  0  0
 22 42  1  0  0  0  0
 22 43  1  0  0  0  0
 23 44  1  0  0  0  0
 23 45  1  0  0  0  0
 25 46  1  0  0  0  0
 25 47  1  0  0  0  0
 29 48  1  0  0  0  0
 30 49  1  0  0  0  0
M  END
> <compound_name>
RAL-THA-8416115c-13

> <provenance>
{"isomeric_smiles": "c1ccc2c(c1)cncc2NC(=O)[C@@H]3CCN(c4c3cc(cc4)Cl)Cc5[nH]ncn5", "inchi": "InChI=1S/C22H19ClN6O/c23-15-5-6-20-18(9-15)17(7-8-29(20)12-21-25-13-26-28-21)22(30)27-19-11-24-10-14-3-1-2-4-16(14)19/h1-6,9-11,13,17H,7-8,12H2,(H,27,30)(H,25,26,28)/t17-/m1/s1", "inchi_key": "OGUUARWRDDBIAJ-QGZVFWFLSA-N", "fixed_inchi": "InChI=1/C22H19ClN6O/c23-15-5-6-20-18(9-15)17(7-8-29(20)12-21-25-13-26-28-21)22(30)27-19-11-24-10-14-3-1-2-4-16(14)19/h1-6,9-11,13,17H,7-8,12H2,(H,27,30)(H,25,26,28)/t17-/m1/s1/f/h27-28H", "fixed_inchikey": "OGUUARWRDDBIAJ-JNXUGEOCNA-N"}

> <data_format>
sdf

$$$$
