LIG(A-305)
  -OEChem-06042511313D

 41 42  0     0  0  0  0  0  0999 V2000
    8.8906    0.9175   21.0519 O   0  0  0  0  0  0  0  0  0  0  0  0
    8.3876   -0.1555   21.3628 C   0  0  0  0  0  0  0  0  0  0  0  0
    7.3365   -0.6935   20.7168 N   0  0  0  0  0  0  0  0  0  0  0  0
    6.5955   -0.0404   19.7089 C   0  0  0  0  0  0  0  0  0  0  0  0
    5.4565    0.7106   20.0570 C   0  0  0  0  0  0  0  0  0  0  0  0
    5.0006    0.8545   21.4870 C   0  0  0  0  0  0  0  0  0  0  0  0
    4.7955    1.3787   19.0340 C   0  0  0  0  0  0  0  0  0  0  0  0
    5.2775    1.2977   17.7430 C   0  0  0  0  0  0  0  0  0  0  0  0
    6.3634    0.5937   17.4009 N   0  0  0  0  0  0  0  0  0  0  0  0
    6.9975   -0.0683   18.3749 C   0  0  0  0  0  0  0  0  0  0  0  0
    8.9056   -0.9786   22.5278 C   0  0  0  0  0  0  0  0  0  0  0  0
   10.3536   -0.6556   22.8217 C   0  0  0  0  0  0  0  0  0  0  0  0
   11.3706   -1.3736   22.2056 C   0  0  0  0  0  0  0  0  0  0  0  0
   12.6716   -0.9297   22.3146 C   0  0  0  0  0  0  0  0  0  0  0  0
   13.9455   -1.8637   21.5915 Cl  0  0  0  0  0  0  0  0  0  0  0  0
   12.9926    0.2263   22.9977 C   0  0  0  0  0  0  0  0  0  0  0  0
   10.6807    0.4673   23.5738 C   0  0  0  0  0  0  0  0  0  0  0  0
   11.9877    0.9373   23.6427 C   0  0  0  0  0  0  0  0  0  0  0  0
   12.3217    2.1772   24.4388 C   0  0  0  0  0  0  0  0  0  0  0  0
   11.9787    3.4653   23.8459 N   0  0  0  0  0  0  0  0  0  0  0  0
   10.8107    3.9563   23.4209 C   0  0  0  0  0  0  0  0  0  0  0  0
    9.9627    3.2504   22.8729 O   0  0  0  0  0  0  0  0  0  0  0  0
   10.5858    5.4223   23.6500 C   0  0  0  0  0  0  0  0  0  0  0  0
    7.0613   -1.6213   20.9688 H   0  0  0  0  0  0  0  0  0  0  0  0
    5.7968    1.3277   22.0804 H   0  0  0  0  0  0  0  0  0  0  0  0
    4.0963    1.4800   21.5222 H   0  0  0  0  0  0  0  0  0  0  0  0
    4.7755   -0.1392   21.9017 H   0  0  0  0  0  0  0  0  0  0  0  0
    3.9095    1.9582   19.2476 H   0  0  0  0  0  0  0  0  0  0  0  0
    4.7495    1.8315   16.9665 H   0  0  0  0  0  0  0  0  0  0  0  0
    7.8659   -0.6549   18.1139 H   0  0  0  0  0  0  0  0  0  0  0  0
    8.3004   -0.7592   23.4198 H   0  0  0  0  0  0  0  0  0  0  0  0
    8.8191   -2.0467   22.2795 H   0  0  0  0  0  0  0  0  0  0  0  0
   11.1448   -2.2701   21.6472 H   0  0  0  0  0  0  0  0  0  0  0  0
   14.0144    0.5746   23.0304 H   0  0  0  0  0  0  0  0  0  0  0  0
    9.9033    0.9854   24.1157 H   0  0  0  0  0  0  0  0  0  0  0  0
   11.7930    2.1049   25.4006 H   0  0  0  0  0  0  0  0  0  0  0  0
   13.4073    2.1736   24.6160 H   0  0  0  0  0  0  0  0  0  0  0  0
   12.7525    4.0896   23.7388 H   0  0  0  0  0  0  0  0  0  0  0  0
    9.5967    5.7071   23.2619 H   0  0  0  0  0  0  0  0  0  0  0  0
   10.6319    5.6362   24.7280 H   0  0  0  0  0  0  0  0  0  0  0  0
   11.3641    5.9985   23.1282 H   0  0  0  0  0  0  0  0  0  0  0  0
  1  2  2  0  0  0  0
  2  3  1  0  0  0  0
  2 11  1  0  0  0  0
  3  4  1  0  0  0  0
  3 24  1  0  0  0  0
  4  5  2  0  0  0  0
  4 10  1  0  0  0  0
  5  6  1  0  0  0  0
  5  7  1  0  0  0  0
  6 25  1  0  0  0  0
  6 26  1  0  0  0  0
  6 27  1  0  0  0  0
  7  8  2  0  0  0  0
  7 28  1  0  0  0  0
  8  9  1  0  0  0  0
  8 29  1  0  0  0  0
  9 10  2  0  0  0  0
 10 30  1  0  0  0  0
 11 12  1  0  0  0  0
 11 31  1  0  0  0  0
 11 32  1  0  0  0  0
 12 13  2  0  0  0  0
 12 17  1  0  0  0  0
 13 14  1  0  0  0  0
 13 33  1  0  0  0  0
 14 15  1  0  0  0  0
 14 16  2  0  0  0  0
 16 18  1  0  0  0  0
 16 34  1  0  0  0  0
 17 18  2  0  0  0  0
 17 35  1  0  0  0  0
 18 19  1  0  0  0  0
 19 20  1  0  0  0  0
 19 36  1  0  0  0  0
 19 37  1  0  0  0  0
 20 21  1  0  0  0  0
 20 38  1  0  0  0  0
 21 22  2  0  0  0  0
 21 23  1  0  0  0  0
 23 39  1  0  0  0  0
 23 40  1  0  0  0  0
 23 41  1  0  0  0  0
M  END
> <compound_name>
RAL-THA-6b94ceba-5

> <provenance>
{"isomeric_smiles": "Cc1ccncc1NC(=O)Cc2cc(cc(c2)Cl)CNC(=O)C", "inchi": "InChI=1S/C17H18ClN3O2/c1-11-3-4-19-10-16(11)21-17(23)8-13-5-14(7-15(18)6-13)9-20-12(2)22/h3-7,10H,8-9H2,1-2H3,(H,20,22)(H,21,23)", "inchi_key": "XDVRTJWPDGZLAS-UHFFFAOYSA-N", "fixed_inchi": "InChI=1/C17H18ClN3O2/c1-11-3-4-19-10-16(11)21-17(23)8-13-5-14(7-15(18)6-13)9-20-12(2)22/h3-7,10H,8-9H2,1-2H3,(H,20,22)(H,21,23)/f/h20-21H", "fixed_inchikey": "XDVRTJWPDGZLAS-BDGWVKIONA-N"}

> <data_format>
sdf

$$$$
