LIG(A-305)
  -OEChem-06042511313D

 43 45  0     0  0  0  0  0  0999 V2000
    1.6532    3.0983   21.4083 F   0  0  0  0  0  0  0  0  0  0  0  0
    2.6452    2.2293   21.0533 C   0  0  0  0  0  0  0  0  0  0  0  0
    3.1733    2.3373   19.7933 C   0  0  0  0  0  0  0  0  0  0  0  0
    3.0832    1.3223   21.9813 C   0  0  0  0  0  0  0  0  0  0  0  0
    4.1052    0.4613   21.6233 C   0  0  0  0  0  0  0  0  0  0  0  0
    4.6732    0.5173   20.3493 C   0  0  0  0  0  0  0  0  0  0  0  0
    4.2143    1.4873   19.4363 C   0  0  0  0  0  0  0  0  0  0  0  0
    4.8473    1.6183   18.2043 N   0  0  0  0  0  0  0  0  0  0  0  0
    5.9253    0.8733   17.8034 C   0  0  0  0  0  0  0  0  0  0  0  0
    6.5283    1.1633   16.7654 O   0  0  0  0  0  0  0  0  0  0  0  0
    6.3413   -0.1567   18.7033 C   0  0  0  0  0  0  0  0  0  0  0  0
    5.7542   -0.3597   19.9133 C   0  0  0  0  0  0  0  0  0  0  0  0
    6.1322   -1.5627   20.7163 C   0  0  0  0  0  0  0  0  0  0  0  0
    5.3742   -2.5287   20.8143 O   0  0  0  0  0  0  0  0  0  0  0  0
    7.2972   -1.5078   21.3613 N   0  0  0  0  0  0  0  0  0  0  0  0
    7.6511   -2.4718   22.3953 C   0  0  0  0  0  0  0  0  0  0  0  0
    9.1251   -2.5038   22.6684 C   0  0  0  0  0  0  0  0  0  0  0  0
    9.5511   -1.1538   22.9184 O   0  0  0  0  0  0  0  0  0  0  0  0
   10.8891   -0.8529   22.8495 C   0  0  0  0  0  0  0  0  0  0  0  0
   11.2201    0.4691   23.2025 C   0  0  0  0  0  0  0  0  0  0  0  0
   10.1611    1.2501   23.5805 O   0  0  0  0  0  0  0  0  0  0  0  0
   10.4161    2.6201   23.8855 C   0  0  0  0  0  0  0  0  0  0  0  0
   11.8791   -1.7169   22.4035 C   0  0  0  0  0  0  0  0  0  0  0  0
   13.1841   -1.2619   22.2865 C   0  0  0  0  0  0  0  0  0  0  0  0
   13.5101    0.0341   22.6366 C   0  0  0  0  0  0  0  0  0  0  0  0
   12.5361    0.9051   23.1006 C   0  0  0  0  0  0  0  0  0  0  0  0
    2.7899    3.0655   19.0940 H   0  0  0  0  0  0  0  0  0  0  0  0
    2.6425    1.2803   22.9664 H   0  0  0  0  0  0  0  0  0  0  0  0
    4.4678   -0.2628   22.3379 H   0  0  0  0  0  0  0  0  0  0  0  0
    4.4897    2.3016   17.5612 H   0  0  0  0  0  0  0  0  0  0  0  0
    7.1567   -0.8012   18.4099 H   0  0  0  0  0  0  0  0  0  0  0  0
    7.9471   -0.7842   21.1291 H   0  0  0  0  0  0  0  0  0  0  0  0
    7.1259   -2.2026   23.3236 H   0  0  0  0  0  0  0  0  0  0  0  0
    7.3306   -3.4724   22.0697 H   0  0  0  0  0  0  0  0  0  0  0  0
    9.3298   -3.1308   23.5488 H   0  0  0  0  0  0  0  0  0  0  0  0
    9.6591   -2.9101   21.7968 H   0  0  0  0  0  0  0  0  0  0  0  0
    9.4755    3.1141   24.1705 H   0  0  0  0  0  0  0  0  0  0  0  0
   11.1305    2.6831   24.7196 H   0  0  0  0  0  0  0  0  0  0  0  0
   10.8394    3.1197   23.0016 H   0  0  0  0  0  0  0  0  0  0  0  0
   11.6349   -2.7377   22.1490 H   0  0  0  0  0  0  0  0  0  0  0  0
   13.9519   -1.9264   21.9187 H   0  0  0  0  0  0  0  0  0  0  0  0
   14.5323    0.3717   22.5481 H   0  0  0  0  0  0  0  0  0  0  0  0
   12.7979    1.9147   23.3807 H   0  0  0  0  0  0  0  0  0  0  0  0
  1  2  1  0  0  0  0
  2  3  2  0  0  0  0
  2  4  1  0  0  0  0
  3  7  1  0  0  0  0
  3 27  1  0  0  0  0
  4  5  2  0  0  0  0
  4 28  1  0  0  0  0
  5  6  1  0  0  0  0
  5 29  1  0  0  0  0
  6  7  2  0  0  0  0
  6 12  1  0  0  0  0
  7  8  1  0  0  0  0
  8  9  1  0  0  0  0
  8 30  1  0  0  0  0
  9 10  2  0  0  0  0
  9 11  1  0  0  0  0
 11 12  2  0  0  0  0
 11 31  1  0  0  0  0
 12 13  1  0  0  0  0
 13 14  2  0  0  0  0
 13 15  1  0  0  0  0
 15 16  1  0  0  0  0
 15 32  1  0  0  0  0
 16 17  1  0  0  0  0
 16 33  1  0  0  0  0
 16 34  1  0  0  0  0
 17 18  1  0  0  0  0
 17 35  1  0  0  0  0
 17 36  1  0  0  0  0
 18 19  1  0  0  0  0
 19 20  2  0  0  0  0
 19 23  1  0  0  0  0
 20 21  1  0  0  0  0
 20 26  1  0  0  0  0
 21 22  1  0  0  0  0
 22 37  1  0  0  0  0
 22 38  1  0  0  0  0
 22 39  1  0  0  0  0
 23 24  2  0  0  0  0
 23 40  1  0  0  0  0
 24 25  1  0  0  0  0
 24 41  1  0  0  0  0
 25 26  2  0  0  0  0
 25 42  1  0  0  0  0
 26 43  1  0  0  0  0
M  END
> <compound_name>
MAT-POS-590ac91e-32

> <provenance>
{"isomeric_smiles": "COc1ccccc1OCCNC(=O)c2cc(=O)[nH]c3c2ccc(c3)F", "inchi": "InChI=1S/C19H17FN2O4/c1-25-16-4-2-3-5-17(16)26-9-8-21-19(24)14-11-18(23)22-15-10-12(20)6-7-13(14)15/h2-7,10-11H,8-9H2,1H3,(H,21,24)(H,22,23)", "inchi_key": "KKIJAAYVRSUCNW-UHFFFAOYSA-N", "fixed_inchi": "InChI=1/C19H17FN2O4/c1-25-16-4-2-3-5-17(16)26-9-8-21-19(24)14-11-18(23)22-15-10-12(20)6-7-13(14)15/h2-7,10-11H,8-9H2,1H3,(H,21,24)(H,22,23)/f/h21-22H", "fixed_inchikey": "KKIJAAYVRSUCNW-XBTAAFKLNA-N"}

> <data_format>
sdf

$$$$
