LIG(A-305)
  -OEChem-06042511303D

 36 38  0     0  0  0  0  0  0999 V2000
    8.9304    0.5849   21.2635 O   0  0  0  0  0  0  0  0  0  0  0  0
    8.3744   -0.5002   21.4165 C   0  0  0  0  0  0  0  0  0  0  0  0
    7.3584   -0.9381   20.6465 N   0  0  0  0  0  0  0  0  0  0  0  0
    6.6534   -0.2311   19.6555 C   0  0  0  0  0  0  0  0  0  0  0  0
    5.5194    0.5409   20.0475 C   0  0  0  0  0  0  0  0  0  0  0  0
    5.0674    0.6548   21.3865 C   0  0  0  0  0  0  0  0  0  0  0  0
    3.9974    1.4428   21.7005 C   0  0  0  0  0  0  0  0  0  0  0  0
    3.3234    2.1458   20.7144 C   0  0  0  0  0  0  0  0  0  0  0  0
    3.7144    2.0639   19.4125 C   0  0  0  0  0  0  0  0  0  0  0  0
    4.8204    1.2609   19.0415 C   0  0  0  0  0  0  0  0  0  0  0  0
    5.2924    1.1599   17.7125 C   0  0  0  0  0  0  0  0  0  0  0  0
    6.3475    0.4469   17.3505 N   0  0  0  0  0  0  0  0  0  0  0  0
    7.0004   -0.2211   18.3085 C   0  0  0  0  0  0  0  0  0  0  0  0
    8.7754   -1.4312   22.5405 C   0  0  0  0  0  0  0  0  0  0  0  0
   10.2054   -1.1682   22.9335 C   0  0  0  0  0  0  0  0  0  0  0  0
   11.2344   -1.4082   22.0855 C   0  0  0  0  0  0  0  0  0  0  0  0
   12.5334   -0.8912   22.3286 C   0  0  0  0  0  0  0  0  0  0  0  0
   13.5324   -1.1171   21.4316 C   0  0  0  0  0  0  0  0  0  0  0  0
   14.3894   -1.3191   20.6386 C   0  0  0  0  0  0  0  0  0  0  0  0
   12.7203   -0.1242   23.5326 C   0  0  0  0  0  0  0  0  0  0  0  0
   11.6863    0.0538   24.4116 C   0  0  0  0  0  0  0  0  0  0  0  0
   10.4273   -0.4692   24.1285 C   0  0  0  0  0  0  0  0  0  0  0  0
    7.0699   -1.8834   20.7987 H   0  0  0  0  0  0  0  0  0  0  0  0
    5.5763    0.1110   22.1686 H   0  0  0  0  0  0  0  0  0  0  0  0
    3.6730    1.5190   22.7277 H   0  0  0  0  0  0  0  0  0  0  0  0
    2.4796    2.7649   20.9812 H   0  0  0  0  0  0  0  0  0  0  0  0
    3.1763    2.6161   18.6562 H   0  0  0  0  0  0  0  0  0  0  0  0
    4.7584    1.6987   16.9439 H   0  0  0  0  0  0  0  0  0  0  0  0
    7.8645   -0.7976   18.0128 H   0  0  0  0  0  0  0  0  0  0  0  0
    8.1207   -1.2602   23.4078 H   0  0  0  0  0  0  0  0  0  0  0  0
    8.6745   -2.4739   22.2049 H   0  0  0  0  0  0  0  0  0  0  0  0
   11.0619   -2.0072   21.2036 H   0  0  0  0  0  0  0  0  0  0  0  0
   15.1560   -1.4998   19.9292 H   0  0  0  0  0  0  0  0  0  0  0  0
   13.6844    0.3143   23.7439 H   0  0  0  0  0  0  0  0  0  0  0  0
   11.8476    0.6019   25.3281 H   0  0  0  0  0  0  0  0  0  0  0  0
    9.6188   -0.3360   24.8320 H   0  0  0  0  0  0  0  0  0  0  0  0
  1  2  2  0  0  0  0
  2  3  1  0  0  0  0
  2 14  1  0  0  0  0
  3  4  1  0  0  0  0
  3 23  1  0  0  0  0
  4  5  2  0  0  0  0
  4 13  1  0  0  0  0
  5  6  1  0  0  0  0
  5 10  1  0  0  0  0
  6  7  2  0  0  0  0
  6 24  1  0  0  0  0
  7  8  1  0  0  0  0
  7 25  1  0  0  0  0
  8  9  2  0  0  0  0
  8 26  1  0  0  0  0
  9 10  1  0  0  0  0
  9 27  1  0  0  0  0
 10 11  2  0  0  0  0
 11 12  1  0  0  0  0
 11 28  1  0  0  0  0
 12 13  2  0  0  0  0
 13 29  1  0  0  0  0
 14 15  1  0  0  0  0
 14 30  1  0  0  0  0
 14 31  1  0  0  0  0
 15 16  2  0  0  0  0
 15 22  1  0  0  0  0
 16 17  1  0  0  0  0
 16 32  1  0  0  0  0
 17 18  1  0  0  0  0
 17 20  2  0  0  0  0
 18 19  3  0  0  0  0
 19 33  1  0  0  0  0
 20 21  1  0  0  0  0
 20 34  1  0  0  0  0
 21 22  2  0  0  0  0
 21 35  1  0  0  0  0
 22 36  1  0  0  0  0
M  END
> <compound_name>
PET-UNK-c9c1e0d8-2

> <provenance>
{"isomeric_smiles": "C#Cc1cccc(c1)CC(=O)Nc2cncc3c2cccc3", "inchi": "InChI=1S/C19H14N2O/c1-2-14-6-5-7-15(10-14)11-19(22)21-18-13-20-12-16-8-3-4-9-17(16)18/h1,3-10,12-13H,11H2,(H,21,22)", "inchi_key": "CLLYBOMGFSNDSO-UHFFFAOYSA-N", "fixed_inchi": "InChI=1/C19H14N2O/c1-2-14-6-5-7-15(10-14)11-19(22)21-18-13-20-12-16-8-3-4-9-17(16)18/h1,3-10,12-13H,11H2,(H,21,22)/f/h21H", "fixed_inchikey": "CLLYBOMGFSNDSO-PKSOQXRJNA-N"}

> <data_format>
sdf

$$$$
