LIG(A-306)
  -OEChem-06042511403D

 57 60  0     1  0  0  0  0  0999 V2000
   13.9304   -1.2363   21.4316 Cl  0  0  0  0  0  0  0  0  0  0  0  0
   12.6705   -0.5623   22.4178 C   0  0  0  0  0  0  0  0  0  0  0  0
   12.9527    0.3746   23.4118 C   0  0  0  0  0  0  0  0  0  0  0  0
   14.5537    1.0126   23.6266 Cl  0  0  0  0  0  0  0  0  0  0  0  0
   11.9328    0.8615   24.2030 C   0  0  0  0  0  0  0  0  0  0  0  0
   10.6338    0.4456   23.9832 C   0  0  0  0  0  0  0  0  0  0  0  0
   11.3695   -0.9793   22.1969 C   0  0  0  0  0  0  0  0  0  0  0  0
   10.3326   -0.4704   22.9771 C   0  0  0  0  0  0  0  0  0  0  0  0
    8.8866   -0.9134   22.7093 C   0  0  1  0  0  0  0  0  0  0  0  0
    8.8545   -2.4143   22.4002 C   0  0  0  0  0  0  0  0  0  0  0  0
    8.0518   -0.6624   23.8945 N   0  0  0  0  0  0  0  0  0  0  0  0
    7.4538    0.4825   24.2606 C   0  0  0  0  0  0  0  0  0  0  0  0
    7.5737    1.5436   23.6557 O   0  0  0  0  0  0  0  0  0  0  0  0
    6.6310    0.3714   25.5157 C   0  0  1  0  0  0  0  0  0  0  0  0
    7.0702    1.3854   26.5967 C   0  0  0  0  0  0  0  0  0  0  0  0
    5.7932    2.0163   27.1380 C   0  0  0  0  0  0  0  0  0  0  0  0
    5.1730    0.7665   25.2750 C   0  0  0  0  0  0  0  0  0  0  0  0
    4.6941    1.2024   26.5891 N   0  3  2  0  0  0  0  0  0  0  0  0
    3.4181    1.9324   26.5273 C   0  0  0  0  0  0  0  0  0  0  0  0
    8.3494   -0.1233   21.4715 C   0  0  0  0  0  0  0  0  0  0  0  0
    8.9713    0.8188   20.9924 O   0  0  0  0  0  0  0  0  0  0  0  0
    7.1513   -0.5312   21.0006 N   0  0  0  0  0  0  0  0  0  0  0  0
    6.4842    0.0019   19.8787 C   0  0  0  0  0  0  0  0  0  0  0  0
    5.3982    0.9098   20.0850 C   0  0  0  0  0  0  0  0  0  0  0  0
    4.8704    1.2338   21.3621 C   0  0  0  0  0  0  0  0  0  0  0  0
    3.8164    2.0967   21.4903 C   0  0  0  0  0  0  0  0  0  0  0  0
    3.2392    2.6808   20.3704 C   0  0  0  0  0  0  0  0  0  0  0  0
    3.7101    2.4019   19.1193 C   0  0  0  0  0  0  0  0  0  0  0  0
    4.8020    1.5129   18.9411 C   0  0  0  0  0  0  0  0  0  0  0  0
    5.3249    1.1730   17.6680 C   0  0  0  0  0  0  0  0  0  0  0  0
    6.3268    0.3290   17.4758 N   0  0  0  0  0  0  0  0  0  0  0  0
    6.8760   -0.2350   18.5607 C   0  0  0  0  0  0  0  0  0  0  0  0
   12.1493    1.5662   24.9923 H   0  0  0  0  0  0  0  0  0  0  0  0
    9.8390    0.8366   24.6010 H   0  0  0  0  0  0  0  0  0  0  0  0
   11.1576   -1.6991   21.4201 H   0  0  0  0  0  0  0  0  0  0  0  0
    7.8176   -2.7278   22.2090 H   0  0  0  0  0  0  0  0  0  0  0  0
    9.4691   -2.6187   21.5111 H   0  0  0  0  0  0  0  0  0  0  0  0
    9.2543   -2.9740   23.2587 H   0  0  0  0  0  0  0  0  0  0  0  0
    7.9121   -1.4429   24.5039 H   0  0  0  0  0  0  0  0  0  0  0  0
    6.6833   -0.6505   25.9193 H   0  0  0  0  0  0  0  0  0  0  0  0
    7.6119    0.8704   27.4038 H   0  0  0  0  0  0  0  0  0  0  0  0
    7.7178    2.1566   26.1544 H   0  0  0  0  0  0  0  0  0  0  0  0
    5.7840    1.9848   28.2375 H   0  0  0  0  0  0  0  0  0  0  0  0
    5.7059    3.0595   26.8003 H   0  0  0  0  0  0  0  0  0  0  0  0
    5.1070    1.5863   24.5445 H   0  0  0  0  0  0  0  0  0  0  0  0
    4.5907   -0.0941   24.9139 H   0  0  0  0  0  0  0  0  0  0  0  0
    4.5733    0.3971   27.1695 H   0  0  0  0  0  0  0  0  0  0  0  0
    3.1159    2.2300   27.5423 H   0  0  0  0  0  0  0  0  0  0  0  0
    3.5392    2.8298   25.9029 H   0  0  0  0  0  0  0  0  0  0  0  0
    2.6452    1.2831   26.0903 H   0  0  0  0  0  0  0  0  0  0  0  0
    6.6980   -1.2761   21.4901 H   0  0  0  0  0  0  0  0  0  0  0  0
    5.3072    0.7925   22.2458 H   0  0  0  0  0  0  0  0  0  0  0  0
    3.4295    2.3260   22.4721 H   0  0  0  0  0  0  0  0  0  0  0  0
    2.4100    3.3623   20.4901 H   0  0  0  0  0  0  0  0  0  0  0  0
    3.2477    2.8616   18.2583 H   0  0  0  0  0  0  0  0  0  0  0  0
    4.8770    1.6320   16.7990 H   0  0  0  0  0  0  0  0  0  0  0  0
    7.6878   -0.9294   18.4016 H   0  0  0  0  0  0  0  0  0  0  0  0
  1  2  1  0  0  0  0
  2  3  2  0  0  0  0
  2  7  1  0  0  0  0
  3  4  1  0  0  0  0
  3  5  1  0  0  0  0
  5  6  2  0  0  0  0
  5 33  1  0  0  0  0
  6  8  1  0  0  0  0
  6 34  1  0  0  0  0
  7  8  2  0  0  0  0
  7 35  1  0  0  0  0
  8  9  1  0  0  0  0
  9 10  1  0  0  0  0
  9 11  1  0  0  0  0
  9 20  1  0  0  0  0
 10 36  1  0  0  0  0
 10 37  1  0  0  0  0
 10 38  1  0  0  0  0
 11 12  1  0  0  0  0
 11 39  1  0  0  0  0
 12 13  2  0  0  0  0
 12 14  1  0  0  0  0
 14 15  1  0  0  0  0
 14 17  1  0  0  0  0
 14 40  1  0  0  0  0
 15 16  1  0  0  0  0
 15 41  1  0  0  0  0
 15 42  1  0  0  0  0
 16 18  1  0  0  0  0
 16 43  1  0  0  0  0
 16 44  1  0  0  0  0
 17 18  1  0  0  0  0
 17 45  1  0  0  0  0
 17 46  1  0  0  0  0
 18 19  1  0  0  0  0
 18 47  1  0  0  0  0
 19 48  1  0  0  0  0
 19 49  1  0  0  0  0
 19 50  1  0  0  0  0
 20 21  2  0  0  0  0
 20 22  1  0  0  0  0
 22 23  1  0  0  0  0
 22 51  1  0  0  0  0
 23 24  2  0  0  0  0
 23 32  1  0  0  0  0
 24 25  1  0  0  0  0
 24 29  1  0  0  0  0
 25 26  2  0  0  0  0
 25 52  1  0  0  0  0
 26 27  1  0  0  0  0
 26 53  1  0  0  0  0
 27 28  2  0  0  0  0
 27 54  1  0  0  0  0
 28 29  1  0  0  0  0
 28 55  1  0  0  0  0
 29 30  2  0  0  0  0
 30 31  1  0  0  0  0
 30 56  1  0  0  0  0
 31 32  2  0  0  0  0
 32 57  1  0  0  0  0
M  CHG  1  18   1
M  END
> <compound_name>
MAT-POS-e9e99895-13

> <provenance>
{"isomeric_smiles": "C[C@@](c1ccc(c(c1)Cl)Cl)(C(=O)Nc2cncc3c2cccc3)NC(=O)[C@H]4CC[N@H+](C4)C", "inchi": "InChI=1S/C24H24Cl2N4O2/c1-24(17-7-8-19(25)20(26)11-17,29-22(31)16-9-10-30(2)14-16)23(32)28-21-13-27-12-15-5-3-4-6-18(15)21/h3-8,11-13,16H,9-10,14H2,1-2H3,(H,28,32)(H,29,31)/p+1/t16-,24+/m0/s1", "inchi_key": "CDOWQSLSBXGJJG-UPCLLVRISA-O", "fixed_inchi": "InChI=1/C24H24Cl2N4O2/c1-24(17-7-8-19(25)20(26)11-17,29-22(31)16-9-10-30(2)14-16)23(32)28-21-13-27-12-15-5-3-4-6-18(15)21/h3-8,11-13,16H,9-10,14H2,1-2H3,(H,28,32)(H,29,31)/p+1/t16-,24+/m0/s1/fC24H25Cl2N4O2/h28-30H/q+1", "fixed_inchikey": "CDOWQSLSBXGJJG-RCPDKYKMNA-O"}

> <data_format>
sdf

$$$$
