LIG(A-306)
  -OEChem-06042511423D

 50 52  0     0  0  0  0  0  0999 V2000
   14.0415   -1.2956   21.4791 Cl  0  0  0  0  0  0  0  0  0  0  0  0
   12.7095   -0.7659   22.4715 C   0  0  0  0  0  0  0  0  0  0  0  0
   12.9424    0.1358   23.4898 C   0  0  0  0  0  0  0  0  0  0  0  0
   11.8742    0.5401   24.2731 C   0  0  0  0  0  0  0  0  0  0  0  0
   10.5959    0.0756   24.0051 C   0  0  0  0  0  0  0  0  0  0  0  0
   11.4432   -1.2494   22.2025 C   0  0  0  0  0  0  0  0  0  0  0  0
   10.3629   -0.8042   22.9568 C   0  0  0  0  0  0  0  0  0  0  0  0
    8.9556   -1.1928   22.5688 C   0  0  0  0  0  0  0  0  0  0  0  0
    8.3336   -0.2034   21.6017 C   0  0  0  0  0  0  0  0  0  0  0  0
    8.8304    0.9032   21.3964 O   0  0  0  0  0  0  0  0  0  0  0  0
    7.2231   -0.6555   20.9785 N   0  0  0  0  0  0  0  0  0  0  0  0
    6.5310   -0.0753   19.8982 C   0  0  0  0  0  0  0  0  0  0  0  0
    6.9228   -0.2105   18.5650 C   0  0  0  0  0  0  0  0  0  0  0  0
    6.3178    0.3747   17.5226 N   0  0  0  0  0  0  0  0  0  0  0  0
    5.2730    1.1471   17.7763 C   0  0  0  0  0  0  0  0  0  0  0  0
    5.3923    0.7451   20.1739 C   0  0  0  0  0  0  0  0  0  0  0  0
    4.7522    1.3823   19.0735 C   0  0  0  0  0  0  0  0  0  0  0  0
    3.6364    2.2157   19.3181 C   0  0  0  0  0  0  0  0  0  0  0  0
    3.1696    2.4038   20.5842 C   0  0  0  0  0  0  0  0  0  0  0  0
    4.8735    0.9583   21.4770 C   0  0  0  0  0  0  0  0  0  0  0  0
    3.7827    1.7736   21.6597 C   0  0  0  0  0  0  0  0  0  0  0  0
    3.1838    2.0936   22.8568 O   0  0  0  0  0  0  0  0  0  0  0  0
    3.3859    1.2255   23.9890 C   0  0  0  0  0  0  0  0  0  0  0  0
    2.3959    1.6183   25.0693 C   0  0  0  0  0  0  0  0  0  0  0  0
    2.7476    2.8096   25.8610 N   0  3  0  0  0  0  0  0  0  0  0  0
    3.2449    2.4268   27.1782 C   0  0  0  0  0  0  0  0  0  0  0  0
    1.6048    3.7148   26.0026 C   0  0  0  0  0  0  0  0  0  0  0  0
   13.9360    0.5179   23.6719 H   0  0  0  0  0  0  0  0  0  0  0  0
   12.0377    1.2199   25.0961 H   0  0  0  0  0  0  0  0  0  0  0  0
    9.7704    0.4024   24.6199 H   0  0  0  0  0  0  0  0  0  0  0  0
   11.2934   -1.9688   21.4111 H   0  0  0  0  0  0  0  0  0  0  0  0
    8.9802   -2.1846   22.0937 H   0  0  0  0  0  0  0  0  0  0  0  0
    8.3369   -1.2367   23.4773 H   0  0  0  0  0  0  0  0  0  0  0  0
    6.8442   -1.5118   21.3296 H   0  0  0  0  0  0  0  0  0  0  0  0
    7.7794   -0.8349   18.3581 H   0  0  0  0  0  0  0  0  0  0  0  0
    4.7862    1.6290   16.9414 H   0  0  0  0  0  0  0  0  0  0  0  0
    3.1481    2.7093   18.4910 H   0  0  0  0  0  0  0  0  0  0  0  0
    2.3182    3.0465   20.7527 H   0  0  0  0  0  0  0  0  0  0  0  0
    5.3367    0.4790   22.3268 H   0  0  0  0  0  0  0  0  0  0  0  0
    3.2172    0.1800   23.6915 H   0  0  0  0  0  0  0  0  0  0  0  0
    4.4130    1.3382   24.3663 H   0  0  0  0  0  0  0  0  0  0  0  0
    1.4267    1.8092   24.5852 H   0  0  0  0  0  0  0  0  0  0  0  0
    2.2988    0.7695   25.7623 H   0  0  0  0  0  0  0  0  0  0  0  0
    3.4759    3.2983   25.3805 H   0  0  0  0  0  0  0  0  0  0  0  0
    3.5009    3.3304   27.7508 H   0  0  0  0  0  0  0  0  0  0  0  0
    2.4676    1.8616   27.7133 H   0  0  0  0  0  0  0  0  0  0  0  0
    4.1411    1.7993   27.0634 H   0  0  0  0  0  0  0  0  0  0  0  0
    1.9019    4.5911   26.5974 H   0  0  0  0  0  0  0  0  0  0  0  0
    1.2719    4.0434   25.0069 H   0  0  0  0  0  0  0  0  0  0  0  0
    0.7819    3.1896   26.5094 H   0  0  0  0  0  0  0  0  0  0  0  0
  1  2  1  0  0  0  0
  2  3  2  0  0  0  0
  2  6  1  0  0  0  0
  3  4  1  0  0  0  0
  3 28  1  0  0  0  0
  4  5  2  0  0  0  0
  4 29  1  0  0  0  0
  5  7  1  0  0  0  0
  5 30  1  0  0  0  0
  6  7  2  0  0  0  0
  6 31  1  0  0  0  0
  7  8  1  0  0  0  0
  8  9  1  0  0  0  0
  8 32  1  0  0  0  0
  8 33  1  0  0  0  0
  9 10  2  0  0  0  0
  9 11  1  0  0  0  0
 11 12  1  0  0  0  0
 11 34  1  0  0  0  0
 12 13  2  0  0  0  0
 12 16  1  0  0  0  0
 13 14  1  0  0  0  0
 13 35  1  0  0  0  0
 14 15  2  0  0  0  0
 15 17  1  0  0  0  0
 15 36  1  0  0  0  0
 16 17  2  0  0  0  0
 16 20  1  0  0  0  0
 17 18  1  0  0  0  0
 18 19  2  0  0  0  0
 18 37  1  0  0  0  0
 19 21  1  0  0  0  0
 19 38  1  0  0  0  0
 20 21  2  0  0  0  0
 20 39  1  0  0  0  0
 21 22  1  0  0  0  0
 22 23  1  0  0  0  0
 23 24  1  0  0  0  0
 23 40  1  0  0  0  0
 23 41  1  0  0  0  0
 24 25  1  0  0  0  0
 24 42  1  0  0  0  0
 24 43  1  0  0  0  0
 25 26  1  0  0  0  0
 25 27  1  0  0  0  0
 25 44  1  0  0  0  0
 26 45  1  0  0  0  0
 26 46  1  0  0  0  0
 26 47  1  0  0  0  0
 27 48  1  0  0  0  0
 27 49  1  0  0  0  0
 27 50  1  0  0  0  0
M  CHG  1  25   1
M  END
> <compound_name>
MAT-POS-90fd5f68-31

> <provenance>
{"isomeric_smiles": "C[NH+](C)CCOc1ccc2cncc(c2c1)NC(=O)Cc3cccc(c3)Cl", "inchi": "InChI=1S/C21H22ClN3O2/c1-25(2)8-9-27-18-7-6-16-13-23-14-20(19(16)12-18)24-21(26)11-15-4-3-5-17(22)10-15/h3-7,10,12-14H,8-9,11H2,1-2H3,(H,24,26)/p+1", "inchi_key": "XNJZKRXHKUJCAT-UHFFFAOYSA-O", "fixed_inchi": "InChI=1/C21H22ClN3O2/c1-25(2)8-9-27-18-7-6-16-13-23-14-20(19(16)12-18)24-21(26)11-15-4-3-5-17(22)10-15/h3-7,10,12-14H,8-9,11H2,1-2H3,(H,24,26)/p+1/fC21H23ClN3O2/h24-25H/q+1", "fixed_inchikey": "XNJZKRXHKUJCAT-UJJXMDJCNA-O"}

> <data_format>
sdf

$$$$
