LIG(A-305)
  -OEChem-06042511333D

 32 34  0     0  0  0  0  0  0999 V2000
    8.6837    0.7734   20.7809 O   0  0  0  0  0  0  0  0  0  0  0  0
    8.2577   -0.3786   20.8250 C   0  0  0  0  0  0  0  0  0  0  0  0
    8.8978   -1.4535   21.6790 C   0  0  0  0  0  0  0  0  0  0  0  0
   10.1538   -0.9965   22.3779 C   0  0  0  0  0  0  0  0  0  0  0  0
   10.1030   -0.1944   23.5098 C   0  0  0  0  0  0  0  0  0  0  0  0
   11.2661    0.2986   24.0826 C   0  0  0  0  0  0  0  0  0  0  0  0
   12.5000   -0.0174   23.5345 C   0  0  0  0  0  0  0  0  0  0  0  0
   11.3938   -1.3425   21.8567 C   0  0  0  0  0  0  0  0  0  0  0  0
   12.5409   -0.8655   22.4456 C   0  0  0  0  0  0  0  0  0  0  0  0
   14.0758   -1.4475   21.8684 Cl  0  0  0  0  0  0  0  0  0  0  0  0
    7.2206   -0.8096   20.0522 N   0  0  0  0  0  0  0  0  0  0  0  0
    6.4375    0.0553   19.3242 C   0  0  0  0  0  0  0  0  0  0  0  0
    5.4286    0.7334   19.9453 C   0  0  0  0  0  0  0  0  0  0  0  0
    4.8004    1.4353   18.9203 N   0  0  0  0  0  0  0  0  0  0  0  0
    5.4783    1.1483   17.7643 C   0  0  0  0  0  0  0  0  0  0  0  0
    6.4853    0.3163   17.9602 N   0  0  0  0  0  0  0  0  0  0  0  0
    4.8997    0.8325   21.2574 C   0  0  0  0  0  0  0  0  0  0  0  0
    3.7847    1.5875   21.4755 C   0  0  0  0  0  0  0  0  0  0  0  0
    3.1626    2.2844   20.4125 C   0  0  0  0  0  0  0  0  0  0  0  0
    3.6645    2.2133   19.1614 C   0  0  0  0  0  0  0  0  0  0  0  0
    8.1712   -1.7717   22.4411 H   0  0  0  0  0  0  0  0  0  0  0  0
    9.1495   -2.3077   21.0332 H   0  0  0  0  0  0  0  0  0  0  0  0
    9.1468    0.0484   23.9494 H   0  0  0  0  0  0  0  0  0  0  0  0
   11.2106    0.9298   24.9572 H   0  0  0  0  0  0  0  0  0  0  0  0
   13.4093    0.3909   23.9503 H   0  0  0  0  0  0  0  0  0  0  0  0
   11.4568   -1.9849   20.9909 H   0  0  0  0  0  0  0  0  0  0  0  0
    7.0224   -1.7890   20.0133 H   0  0  0  0  0  0  0  0  0  0  0  0
    5.2178    1.5573   16.7993 H   0  0  0  0  0  0  0  0  0  0  0  0
    5.3756    0.3146   22.0769 H   0  0  0  0  0  0  0  0  0  0  0  0
    3.3719    1.6541   22.4712 H   0  0  0  0  0  0  0  0  0  0  0  0
    2.2803    2.8772   20.6036 H   0  0  0  0  0  0  0  0  0  0  0  0
    3.1924    2.7529   18.3538 H   0  0  0  0  0  0  0  0  0  0  0  0
  1  2  2  0  0  0  0
  2  3  1  0  0  0  0
  2 11  1  0  0  0  0
  3  4  1  0  0  0  0
  3 21  1  0  0  0  0
  3 22  1  0  0  0  0
  4  5  2  0  0  0  0
  4  8  1  0  0  0  0
  5  6  1  0  0  0  0
  5 23  1  0  0  0  0
  6  7  2  0  0  0  0
  6 24  1  0  0  0  0
  7  9  1  0  0  0  0
  7 25  1  0  0  0  0
  8  9  2  0  0  0  0
  8 26  1  0  0  0  0
  9 10  1  0  0  0  0
 11 12  1  0  0  0  0
 11 27  1  0  0  0  0
 12 13  2  0  0  0  0
 12 16  1  0  0  0  0
 13 14  1  0  0  0  0
 13 17  1  0  0  0  0
 14 15  1  0  0  0  0
 14 20  1  0  0  0  0
 15 16  2  0  0  0  0
 15 28  1  0  0  0  0
 17 18  2  0  0  0  0
 17 29  1  0  0  0  0
 18 19  1  0  0  0  0
 18 30  1  0  0  0  0
 19 20  2  0  0  0  0
 19 31  1  0  0  0  0
 20 32  1  0  0  0  0
M  END
> <compound_name>
EDJ-MED-50fe53e8-3

> <provenance>
{"isomeric_smiles": "c1ccn2cnc(c2c1)NC(=O)Cc3cccc(c3)Cl", "inchi": "InChI=1S/C15H12ClN3O/c16-12-5-3-4-11(8-12)9-14(20)18-15-13-6-1-2-7-19(13)10-17-15/h1-8,10H,9H2,(H,18,20)", "inchi_key": "SDPLNJUUYIUIPZ-UHFFFAOYSA-N", "fixed_inchi": "InChI=1/C15H12ClN3O/c16-12-5-3-4-11(8-12)9-14(20)18-15-13-6-1-2-7-19(13)10-17-15/h1-8,10H,9H2,(H,18,20)/f/h18H", "fixed_inchikey": "SDPLNJUUYIUIPZ-GPQMBLKYNA-N"}

> <data_format>
sdf

$$$$
