LIG(A-307)
  -OEChem-06042511383D

 48 51  0     1  0  0  0  0  0999 V2000
   13.3605    6.6175   22.0522 O   0  0  0  0  0  0  0  0  0  0  0  0
   13.3657    5.4225   22.3221 C   0  0  0  0  0  0  0  0  0  0  0  0
   12.6369    4.1884   21.8111 C   0  0  0  0  0  0  0  0  0  0  0  0
   14.0659    4.7085   23.2230 N   0  0  0  0  0  0  0  0  0  0  0  0
   13.6631    3.4075   22.6400 C   0  0  1  0  0  0  0  0  0  0  0  0
   12.9103    2.5953   23.5580 O   0  0  0  0  0  0  0  0  0  0  0  0
   12.6654    1.3063   23.1430 C   0  0  0  0  0  0  0  0  0  0  0  0
   13.7025    0.4555   22.7909 C   0  0  0  0  0  0  0  0  0  0  0  0
   13.3867   -0.8335   22.4068 C   0  0  0  0  0  0  0  0  0  0  0  0
   14.6649   -1.8993   21.8997 Cl  0  0  0  0  0  0  0  0  0  0  0  0
   11.3435    0.8881   23.1031 C   0  0  0  0  0  0  0  0  0  0  0  0
   11.0707   -0.4159   22.7220 C   0  0  0  0  0  0  0  0  0  0  0  0
   12.0868   -1.2957   22.3829 C   0  0  0  0  0  0  0  0  0  0  0  0
    9.7397   -0.7421   22.7121 O   0  0  0  0  0  0  0  0  0  0  0  0
    9.3619   -2.0782   22.3521 C   0  0  0  0  0  0  0  0  0  0  0  0
    7.8669   -2.1164   22.3472 C   0  0  0  0  0  0  0  0  0  0  0  0
    7.3297   -1.1345   21.4123 N   0  0  0  0  0  0  0  0  0  0  0  0
    6.1127   -1.2577   20.8874 C   0  0  0  0  0  0  0  0  0  0  0  0
    5.3848   -2.2258   21.1164 O   0  0  0  0  0  0  0  0  0  0  0  0
    5.6704   -0.1537   20.0165 C   0  0  0  0  0  0  0  0  0  0  0  0
    4.6573    0.7961   20.4546 C   0  0  0  0  0  0  0  0  0  0  0  0
    4.1264    0.8090   21.7477 C   0  0  0  0  0  0  0  0  0  0  0  0
    3.1803    1.7598   22.0988 C   0  0  0  0  0  0  0  0  0  0  0  0
    2.7400    2.6898   21.1729 C   0  0  0  0  0  0  0  0  0  0  0  0
    3.2469    2.6909   19.8818 C   0  0  0  0  0  0  0  0  0  0  0  0
    4.2181    1.7541   19.5197 C   0  0  0  0  0  0  0  0  0  0  0  0
    4.7859    1.7733   18.2497 N   0  0  0  0  0  0  0  0  0  0  0  0
    5.7831    0.9304   17.8326 C   0  0  0  0  0  0  0  0  0  0  0  0
    6.3119    1.0926   16.7275 O   0  0  0  0  0  0  0  0  0  0  0  0
    6.1963   -0.0555   18.7705 C   0  0  0  0  0  0  0  0  0  0  0  0
   11.5930    4.0894   22.1435 H   0  0  0  0  0  0  0  0  0  0  0  0
   12.6924    4.0277   20.7243 H   0  0  0  0  0  0  0  0  0  0  0  0
   14.6439    4.9623   23.9986 H   0  0  0  0  0  0  0  0  0  0  0  0
   14.4345    2.8920   22.0491 H   0  0  0  0  0  0  0  0  0  0  0  0
   14.7287    0.7914   22.8162 H   0  0  0  0  0  0  0  0  0  0  0  0
   10.5433    1.5650   23.3637 H   0  0  0  0  0  0  0  0  0  0  0  0
   11.8667   -2.3165   22.1072 H   0  0  0  0  0  0  0  0  0  0  0  0
    9.7506   -2.3258   21.3533 H   0  0  0  0  0  0  0  0  0  0  0  0
    9.7569   -2.7949   23.0872 H   0  0  0  0  0  0  0  0  0  0  0  0
    7.5323   -3.1207   22.0481 H   0  0  0  0  0  0  0  0  0  0  0  0
    7.4966   -1.8926   23.3586 H   0  0  0  0  0  0  0  0  0  0  0  0
    7.8911   -0.3469   21.1586 H   0  0  0  0  0  0  0  0  0  0  0  0
    4.4531    0.0785   22.4730 H   0  0  0  0  0  0  0  0  0  0  0  0
    2.7835    1.7749   23.1031 H   0  0  0  0  0  0  0  0  0  0  0  0
    1.9967    3.4196   21.4578 H   0  0  0  0  0  0  0  0  0  0  0  0
    2.8928    3.4122   19.1603 H   0  0  0  0  0  0  0  0  0  0  0  0
    4.4431    2.4483   17.5964 H   0  0  0  0  0  0  0  0  0  0  0  0
    6.9631   -0.7573   18.4773 H   0  0  0  0  0  0  0  0  0  0  0  0
  1  2  2  0  0  0  0
  2  3  1  0  0  0  0
  2  4  1  0  0  0  0
  3  5  1  0  0  0  0
  3 31  1  0  0  0  0
  3 32  1  0  0  0  0
  4  5  1  0  0  0  0
  4 33  1  0  0  0  0
  5  6  1  0  0  0  0
  5 34  1  0  0  0  0
  6  7  1  0  0  0  0
  7  8  2  0  0  0  0
  7 11  1  0  0  0  0
  8  9  1  0  0  0  0
  8 35  1  0  0  0  0
  9 10  1  0  0  0  0
  9 13  2  0  0  0  0
 11 12  2  0  0  0  0
 11 36  1  0  0  0  0
 12 13  1  0  0  0  0
 12 14  1  0  0  0  0
 13 37  1  0  0  0  0
 14 15  1  0  0  0  0
 15 16  1  0  0  0  0
 15 38  1  0  0  0  0
 15 39  1  0  0  0  0
 16 17  1  0  0  0  0
 16 40  1  0  0  0  0
 16 41  1  0  0  0  0
 17 18  1  0  0  0  0
 17 42  1  0  0  0  0
 18 19  2  0  0  0  0
 18 20  1  0  0  0  0
 20 21  1  0  0  0  0
 20 30  2  0  0  0  0
 21 22  2  0  0  0  0
 21 26  1  0  0  0  0
 22 23  1  0  0  0  0
 22 43  1  0  0  0  0
 23 24  2  0  0  0  0
 23 44  1  0  0  0  0
 24 25  1  0  0  0  0
 24 45  1  0  0  0  0
 25 26  2  0  0  0  0
 25 46  1  0  0  0  0
 26 27  1  0  0  0  0
 27 28  1  0  0  0  0
 27 47  1  0  0  0  0
 28 29  2  0  0  0  0
 28 30  1  0  0  0  0
 30 48  1  0  0  0  0
M  END
> <compound_name>
ERI-UCB-ce40166b-17

> <provenance>
{"isomeric_smiles": "c1ccc2c(c1)c(cc(=O)[nH]2)C(=O)NCCOc3cc(cc(c3)Cl)O[C@H]4CC(=O)N4", "inchi": "InChI=1S/C21H18ClN3O5/c22-12-7-13(9-14(8-12)30-20-11-19(27)25-20)29-6-5-23-21(28)16-10-18(26)24-17-4-2-1-3-15(16)17/h1-4,7-10,20H,5-6,11H2,(H,23,28)(H,24,26)(H,25,27)/t20-/m0/s1", "inchi_key": "SNQHLYWSRJDLGK-FQEVSTJZSA-N", "fixed_inchi": "InChI=1/C21H18ClN3O5/c22-12-7-13(9-14(8-12)30-20-11-19(27)25-20)29-6-5-23-21(28)16-10-18(26)24-17-4-2-1-3-15(16)17/h1-4,7-10,20H,5-6,11H2,(H,23,28)(H,24,26)(H,25,27)/t20-/m0/s1/f/h23-25H", "fixed_inchikey": "SNQHLYWSRJDLGK-DHKJJFSMNA-N"}

> <data_format>
sdf

$$$$
