LIG(A-307)
  -OEChem-06042511433D

 64 69  0     1  0  0  0  0  0999 V2000
    9.1344    7.2271   22.7297 N   0  0  0  0  0  0  0  0  0  0  0  0
    8.4654    6.3073   22.7734 C   0  0  0  0  0  0  0  0  0  0  0  0
    7.6058    5.1131   22.7707 C   0  0  0  0  0  0  0  0  0  0  0  0
    6.2244    5.2962   23.3640 C   0  0  0  0  0  0  0  0  0  0  0  0
    6.3778    5.2212   21.8906 C   0  0  0  0  0  0  0  0  0  0  0  0
    8.3800    3.7949   22.8849 C   0  0  0  0  0  0  0  0  0  0  0  0
    8.6959    3.0652   24.4832 S   0  0  0  0  0  0  0  0  0  0  0  0
    7.4649    2.5394   24.9800 O   0  0  0  0  0  0  0  0  0  0  0  0
    9.4152    4.0158   25.2707 O   0  0  0  0  0  0  0  0  0  0  0  0
    9.6931    1.8013   24.2266 N   0  0  2  0  0  0  0  0  0  0  0  0
    9.1981    0.4262   24.0539 C   0  0  0  0  0  0  0  0  0  0  0  0
   11.1203    1.8535   24.5764 C   0  0  0  0  0  0  0  0  0  0  0  0
   11.9553    1.0526   23.5932 C   0  0  0  0  0  0  0  0  0  0  0  0
   11.3849    0.0890   22.7435 C   0  0  0  0  0  0  0  0  0  0  0  0
   12.1982   -0.6073   21.8448 C   0  0  0  0  0  0  0  0  0  0  0  0
   13.5517   -0.3310   21.7938 C   0  0  0  0  0  0  0  0  0  0  0  0
   14.5505   -1.1914   20.6432 Cl  0  0  0  0  0  0  0  0  0  0  0  0
   14.1260    0.6107   22.6173 C   0  0  0  0  0  0  0  0  0  0  0  0
   13.3278    1.2910   23.5169 C   0  0  0  0  0  0  0  0  0  0  0  0
    9.8794   -0.1740   22.8007 C   0  0  1  0  0  0  0  0  0  0  0  0
    9.4331   -1.6437   22.5285 C   0  0  1  0  0  0  0  0  0  0  0  0
    9.4725   -2.5908   23.7278 C   0  0  0  0  0  0  0  0  0  0  0  0
   10.8878   -2.9599   24.1385 C   0  0  0  0  0  0  0  0  0  0  0  0
    9.2226    0.5503   21.6185 C   0  0  0  0  0  0  0  0  0  0  0  0
    9.5737    1.6079   21.1406 O   0  0  0  0  0  0  0  0  0  0  0  0
    8.1479   -0.1854   21.2151 N   0  0  0  0  0  0  0  0  0  0  0  0
    8.0473   -1.4697   21.9198 C   0  0  0  0  0  0  0  0  0  0  0  0
    7.2164    0.1938   20.1893 C   0  0  0  0  0  0  0  0  0  0  0  0
    6.0451    0.9649   20.4655 C   0  0  0  0  0  0  0  0  0  0  0  0
    5.6384    1.3563   21.7706 C   0  0  0  0  0  0  0  0  0  0  0  0
    4.5070    2.0978   21.9646 C   0  0  0  0  0  0  0  0  0  0  0  0
    3.7286    2.4989   20.8838 C   0  0  0  0  0  0  0  0  0  0  0  0
    4.0774    2.1515   19.6080 C   0  0  0  0  0  0  0  0  0  0  0  0
    5.2366    1.3722   19.3628 C   0  0  0  0  0  0  0  0  0  0  0  0
    5.6444    0.9768   18.0607 C   0  0  0  0  0  0  0  0  0  0  0  0
    6.7307    0.2607   17.8078 N   0  0  0  0  0  0  0  0  0  0  0  0
    7.4803   -0.1122   18.8577 C   0  0  0  0  0  0  0  0  0  0  0  0
    5.7475    4.4677   23.9084 H   0  0  0  0  0  0  0  0  0  0  0  0
    5.9540    6.2508   23.8391 H   0  0  0  0  0  0  0  0  0  0  0  0
    6.0143    4.3373   21.3460 H   0  0  0  0  0  0  0  0  0  0  0  0
    6.2207    6.1204   21.2767 H   0  0  0  0  0  0  0  0  0  0  0  0
    7.8191    3.0486   22.3031 H   0  0  0  0  0  0  0  0  0  0  0  0
    9.3607    3.9637   22.4161 H   0  0  0  0  0  0  0  0  0  0  0  0
    9.4501   -0.1751   24.9398 H   0  0  0  0  0  0  0  0  0  0  0  0
    8.1068    0.4370   23.9163 H   0  0  0  0  0  0  0  0  0  0  0  0
   11.4554    2.9012   24.5619 H   0  0  0  0  0  0  0  0  0  0  0  0
   11.2580    1.4384   25.5857 H   0  0  0  0  0  0  0  0  0  0  0  0
   11.7716   -1.3565   21.1943 H   0  0  0  0  0  0  0  0  0  0  0  0
   15.1851    0.8149   22.5611 H   0  0  0  0  0  0  0  0  0  0  0  0
   13.7753    2.0219   24.1742 H   0  0  0  0  0  0  0  0  0  0  0  0
   10.0960   -2.0532   21.7521 H   0  0  0  0  0  0  0  0  0  0  0  0
    8.9756   -2.1017   24.5786 H   0  0  0  0  0  0  0  0  0  0  0  0
    8.9306   -3.5117   23.4666 H   0  0  0  0  0  0  0  0  0  0  0  0
   10.8539   -3.6400   25.0024 H   0  0  0  0  0  0  0  0  0  0  0  0
   11.3948   -3.4583   23.2992 H   0  0  0  0  0  0  0  0  0  0  0  0
   11.4398   -2.0483   24.4112 H   0  0  0  0  0  0  0  0  0  0  0  0
    7.2751   -1.4307   22.7022 H   0  0  0  0  0  0  0  0  0  0  0  0
    7.8188   -2.2867   21.2196 H   0  0  0  0  0  0  0  0  0  0  0  0
    6.2335    1.0627   22.6227 H   0  0  0  0  0  0  0  0  0  0  0  0
    4.2145    2.3751   22.9666 H   0  0  0  0  0  0  0  0  0  0  0  0
    2.8408    3.0899   21.0539 H   0  0  0  0  0  0  0  0  0  0  0  0
    3.4643    2.4736   18.7793 H   0  0  0  0  0  0  0  0  0  0  0  0
    5.0309    1.2785   17.2246 H   0  0  0  0  0  0  0  0  0  0  0  0
    8.3628   -0.6994   18.6511 H   0  0  0  0  0  0  0  0  0  0  0  0
  1  2  3  0  0  0  0
  2  3  1  0  0  0  0
  3  4  1  0  0  0  0
  3  5  1  0  0  0  0
  3  6  1  0  0  0  0
  4  5  1  0  0  0  0
  4 38  1  0  0  0  0
  4 39  1  0  0  0  0
  5 40  1  0  0  0  0
  5 41  1  0  0  0  0
  6  7  1  0  0  0  0
  6 42  1  0  0  0  0
  6 43  1  0  0  0  0
  7  8  2  0  0  0  0
  7  9  2  0  0  0  0
  7 10  1  0  0  0  0
 10 11  1  0  0  0  0
 10 12  1  0  0  0  0
 11 20  1  0  0  0  0
 11 44  1  0  0  0  0
 11 45  1  0  0  0  0
 12 13  1  0  0  0  0
 12 46  1  0  0  0  0
 12 47  1  0  0  0  0
 13 14  2  0  0  0  0
 13 19  1  0  0  0  0
 14 15  1  0  0  0  0
 14 20  1  0  0  0  0
 15 16  2  0  0  0  0
 15 48  1  0  0  0  0
 16 17  1  0  0  0  0
 16 18  1  0  0  0  0
 18 19  2  0  0  0  0
 18 49  1  0  0  0  0
 19 50  1  0  0  0  0
 20 21  1  0  0  0  0
 20 24  1  0  0  0  0
 21 22  1  0  0  0  0
 21 27  1  0  0  0  0
 21 51  1  0  0  0  0
 22 23  1  0  0  0  0
 22 52  1  0  0  0  0
 22 53  1  0  0  0  0
 23 54  1  0  0  0  0
 23 55  1  0  0  0  0
 23 56  1  0  0  0  0
 24 25  2  0  0  0  0
 24 26  1  0  0  0  0
 26 27  1  0  0  0  0
 26 28  1  0  0  0  0
 27 57  1  0  0  0  0
 27 58  1  0  0  0  0
 28 29  2  0  0  0  0
 28 37  1  0  0  0  0
 29 30  1  0  0  0  0
 29 34  1  0  0  0  0
 30 31  2  0  0  0  0
 30 59  1  0  0  0  0
 31 32  1  0  0  0  0
 31 60  1  0  0  0  0
 32 33  2  0  0  0  0
 32 61  1  0  0  0  0
 33 34  1  0  0  0  0
 33 62  1  0  0  0  0
 34 35  2  0  0  0  0
 35 36  1  0  0  0  0
 35 63  1  0  0  0  0
 36 37  2  0  0  0  0
 37 64  1  0  0  0  0
M  END
> <compound_name>
MAT-POS-50a80394-2

> <provenance>
{"isomeric_smiles": "CC[C@H]1CN(C(=O)[C@@]12C[N@](Cc3c2cc(cc3)Cl)S(=O)(=O)CC4(CC4)C#N)c5cncc6c5cccc6", "inchi": "InChI=1S/C28H27ClN4O3S/c1-2-21-15-33(25-13-31-12-19-5-3-4-6-23(19)25)26(34)28(21)17-32(14-20-7-8-22(29)11-24(20)28)37(35,36)18-27(16-30)9-10-27/h3-8,11-13,21H,2,9-10,14-15,17-18H2,1H3/t21-,28-/m0/s1", "inchi_key": "BPMHGPSPIBHHKD-KMRXNPHXSA-N", "fixed_inchi": "InChI=1/C28H27ClN4O3S/c1-2-21-15-33(25-13-31-12-19-5-3-4-6-23(19)25)26(34)28(21)17-32(14-20-7-8-22(29)11-24(20)28)37(35,36)18-27(16-30)9-10-27/h3-8,11-13,21H,2,9-10,14-15,17-18H2,1H3/t21-,28-/m0/s1", "fixed_inchikey": "BPMHGPSPIBHHKD-KMRXNPHXNA-N"}

> <data_format>
sdf

$$$$
