LIG(A-305)
  -OEChem-06042511343D

 46 48  0     0  0  0  0  0  0999 V2000
    6.7596    1.0458   16.9992 O   0  0  0  0  0  0  0  0  0  0  0  0
    6.1206    0.7428   18.0022 C   0  0  0  0  0  0  0  0  0  0  0  0
    6.3586   -0.4362   18.7662 C   0  0  0  0  0  0  0  0  0  0  0  0
    5.1797    1.6048   18.5062 N   0  0  0  0  0  0  0  0  0  0  0  0
    4.5137    1.4248   19.7102 C   0  0  0  0  0  0  0  0  0  0  0  0
    4.7977    0.2929   20.4922 C   0  0  0  0  0  0  0  0  0  0  0  0
    4.1517    0.1349   21.7212 C   0  0  0  0  0  0  0  0  0  0  0  0
    3.2027    1.0529   22.1322 C   0  0  0  0  0  0  0  0  0  0  0  0
    2.8957    2.1379   21.3402 C   0  0  0  0  0  0  0  0  0  0  0  0
    3.5517    2.3409   20.1362 C   0  0  0  0  0  0  0  0  0  0  0  0
    5.7427   -0.6782   19.9512 C   0  0  0  0  0  0  0  0  0  0  0  0
    5.9267   -1.9992   20.6093 C   0  0  0  0  0  0  0  0  0  0  0  0
    5.3226   -2.9752   20.1943 O   0  0  0  0  0  0  0  0  0  0  0  0
    6.7927   -2.1121   21.6852 N   0  0  0  0  0  0  0  0  0  0  0  0
    6.9637   -3.3711   22.3943 C   0  0  0  0  0  0  0  0  0  0  0  0
    7.6467   -1.0031   22.1102 C   0  0  0  0  0  0  0  0  0  0  0  0
    9.0687   -1.2192   21.6732 C   0  0  0  0  0  0  0  0  0  0  0  0
    9.8397   -1.2801   22.8802 O   0  0  0  0  0  0  0  0  0  0  0  0
   11.1197   -0.8112   22.8282 C   0  0  0  0  0  0  0  0  0  0  0  0
   11.3327    0.4748   23.3652 C   0  0  0  0  0  0  0  0  0  0  0  0
   10.2067    1.1149   23.8102 O   0  0  0  0  0  0  0  0  0  0  0  0
   10.3667    2.3369   24.5292 C   0  0  0  0  0  0  0  0  0  0  0  0
   12.1757   -1.5162   22.2772 C   0  0  0  0  0  0  0  0  0  0  0  0
   13.4357   -0.9462   22.2522 C   0  0  0  0  0  0  0  0  0  0  0  0
   13.6517    0.3048   22.7972 C   0  0  0  0  0  0  0  0  0  0  0  0
   12.6097    1.0178   23.3642 C   0  0  0  0  0  0  0  0  0  0  0  0
    7.0576   -1.1670   18.3869 H   0  0  0  0  0  0  0  0  0  0  0  0
    4.9584    2.4186   17.9682 H   0  0  0  0  0  0  0  0  0  0  0  0
    4.3945   -0.7072   22.3524 H   0  0  0  0  0  0  0  0  0  0  0  0
    2.6997    0.9188   23.0786 H   0  0  0  0  0  0  0  0  0  0  0  0
    2.1370    2.8365   21.6605 H   0  0  0  0  0  0  0  0  0  0  0  0
    3.3191    3.2044   19.5306 H   0  0  0  0  0  0  0  0  0  0  0  0
    7.6921   -3.2384   23.2078 H   0  0  0  0  0  0  0  0  0  0  0  0
    5.9983   -3.6890   22.8149 H   0  0  0  0  0  0  0  0  0  0  0  0
    7.3297   -4.1382   21.6961 H   0  0  0  0  0  0  0  0  0  0  0  0
    7.2717   -0.0696   21.6654 H   0  0  0  0  0  0  0  0  0  0  0  0
    7.6155   -0.9251   23.2070 H   0  0  0  0  0  0  0  0  0  0  0  0
    9.1588   -2.1612   21.1124 H   0  0  0  0  0  0  0  0  0  0  0  0
    9.4076   -0.3835   21.0433 H   0  0  0  0  0  0  0  0  0  0  0  0
    9.3787    2.7258   24.8168 H   0  0  0  0  0  0  0  0  0  0  0  0
   10.9661    2.1544   25.4333 H   0  0  0  0  0  0  0  0  0  0  0  0
   10.8790    3.0728   23.8919 H   0  0  0  0  0  0  0  0  0  0  0  0
   12.0171   -2.5038   21.8699 H   0  0  0  0  0  0  0  0  0  0  0  0
   14.2577   -1.4836   21.8028 H   0  0  0  0  0  0  0  0  0  0  0  0
   14.6440    0.7308   22.7805 H   0  0  0  0  0  0  0  0  0  0  0  0
   12.7890    1.9886   23.8021 H   0  0  0  0  0  0  0  0  0  0  0  0
  1  2  2  0  0  0  0
  2  3  1  0  0  0  0
  2  4  1  0  0  0  0
  3 11  2  0  0  0  0
  3 27  1  0  0  0  0
  4  5  1  0  0  0  0
  4 28  1  0  0  0  0
  5  6  2  0  0  0  0
  5 10  1  0  0  0  0
  6  7  1  0  0  0  0
  6 11  1  0  0  0  0
  7  8  2  0  0  0  0
  7 29  1  0  0  0  0
  8  9  1  0  0  0  0
  8 30  1  0  0  0  0
  9 10  2  0  0  0  0
  9 31  1  0  0  0  0
 10 32  1  0  0  0  0
 11 12  1  0  0  0  0
 12 13  2  0  0  0  0
 12 14  1  0  0  0  0
 14 15  1  0  0  0  0
 14 16  1  0  0  0  0
 15 33  1  0  0  0  0
 15 34  1  0  0  0  0
 15 35  1  0  0  0  0
 16 17  1  0  0  0  0
 16 36  1  0  0  0  0
 16 37  1  0  0  0  0
 17 18  1  0  0  0  0
 17 38  1  0  0  0  0
 17 39  1  0  0  0  0
 18 19  1  0  0  0  0
 19 20  2  0  0  0  0
 19 23  1  0  0  0  0
 20 21  1  0  0  0  0
 20 26  1  0  0  0  0
 21 22  1  0  0  0  0
 22 40  1  0  0  0  0
 22 41  1  0  0  0  0
 22 42  1  0  0  0  0
 23 24  2  0  0  0  0
 23 43  1  0  0  0  0
 24 25  1  0  0  0  0
 24 44  1  0  0  0  0
 25 26  2  0  0  0  0
 25 45  1  0  0  0  0
 26 46  1  0  0  0  0
M  END
> <compound_name>
BEN-DND-7e92b6ca-2

> <provenance>
{"isomeric_smiles": "CN(CCOc1ccccc1OC)C(=O)c2cc(=O)[nH]c3c2cccc3", "inchi": "InChI=1S/C20H20N2O4/c1-22(11-12-26-18-10-6-5-9-17(18)25-2)20(24)15-13-19(23)21-16-8-4-3-7-14(15)16/h3-10,13H,11-12H2,1-2H3,(H,21,23)", "inchi_key": "BIHUQYISOBUTJB-UHFFFAOYSA-N", "fixed_inchi": "InChI=1/C20H20N2O4/c1-22(11-12-26-18-10-6-5-9-17(18)25-2)20(24)15-13-19(23)21-16-8-4-3-7-14(15)16/h3-10,13H,11-12H2,1-2H3,(H,21,23)/f/h21H", "fixed_inchikey": "BIHUQYISOBUTJB-PKSOQXRJNA-N"}

> <data_format>
sdf

$$$$
