LIG(A-305)
  -OEChem-06042511313D

 42 43  0     1  0  0  0  0  0999 V2000
    6.7090   -5.3477   21.8778 S   0  0  0  0  0  0  0  0  0  0  0  0
    7.6161   -4.0287   22.1107 N   0  0  0  0  0  0  0  0  0  0  0  0
    6.7828    0.5385   17.6130 N   0  0  0  0  0  0  0  0  0  0  0  0
    7.8463   -3.5238   23.4737 C   0  0  0  0  0  0  0  0  0  0  0  0
   12.0033   -1.3060   21.9813 C   0  0  0  0  0  0  0  0  0  0  0  0
    6.3188   -5.3456   20.4998 O   0  0  0  0  0  0  0  0  0  0  0  0
    5.6659    1.0595   18.1392 C   0  0  0  0  0  0  0  0  0  0  0  0
    9.1364   -2.7299   23.6546 C   0  0  0  0  0  0  0  0  0  0  0  0
    6.2942    0.4454   20.3511 C   0  0  0  0  0  0  0  0  0  0  0  0
    7.4581   -0.1136   19.8319 C   0  0  0  0  0  0  0  0  0  0  0  0
    8.4753   -0.9548   21.9677 C   0  0  0  0  0  0  0  0  0  0  0  0
   10.8494   -1.1020   22.7325 C   0  0  0  0  0  0  0  0  0  0  0  0
   13.1515    0.4049   23.2122 C   0  0  0  0  0  0  0  0  0  0  0  0
    7.6529   -0.0376   18.4529 C   0  0  0  0  0  0  0  0  0  0  0  0
   13.1453   -0.5561   22.2172 C   0  0  0  0  0  0  0  0  0  0  0  0
   12.0156    0.6089   23.9744 C   0  0  0  0  0  0  0  0  0  0  0  0
    5.2681   -5.1756   22.8590 C   0  0  0  0  0  0  0  0  0  0  0  0
    8.4381   -0.7677   20.6238 N   0  0  0  0  0  0  0  0  0  0  0  0
    7.4580   -6.4577   22.3797 O   0  0  0  0  0  0  0  0  0  0  0  0
    7.6874   -0.4278   22.7519 O   0  0  0  0  0  0  0  0  0  0  0  0
    5.3811    1.0375   19.4932 C   0  0  0  0  0  0  0  0  0  0  0  0
    9.5833   -1.8969   22.4406 C   0  0  1  0  0  0  0  0  0  0  0  0
   10.8725   -0.1440   23.7385 C   0  0  0  0  0  0  0  0  0  0  0  0
    7.5589   -3.3324   21.3953 H   0  0  0  0  0  0  0  0  0  0  0  0
    7.0028   -2.8714   23.7435 H   0  0  0  0  0  0  0  0  0  0  0  0
    7.8765   -4.3854   24.1569 H   0  0  0  0  0  0  0  0  0  0  0  0
   12.0090   -2.0574   21.2056 H   0  0  0  0  0  0  0  0  0  0  0  0
    4.9518    1.5201   17.4726 H   0  0  0  0  0  0  0  0  0  0  0  0
    8.9944   -2.0430   24.5019 H   0  0  0  0  0  0  0  0  0  0  0  0
    9.9411   -3.4418   23.8906 H   0  0  0  0  0  0  0  0  0  0  0  0
    6.1041    0.4180   21.4139 H   0  0  0  0  0  0  0  0  0  0  0  0
   14.0391    0.9930   23.3931 H   0  0  0  0  0  0  0  0  0  0  0  0
    8.5540   -0.4664   18.0399 H   0  0  0  0  0  0  0  0  0  0  0  0
   14.0318   -0.7225   21.6230 H   0  0  0  0  0  0  0  0  0  0  0  0
   12.0174    1.3555   24.7548 H   0  0  0  0  0  0  0  0  0  0  0  0
    4.6252   -6.0581   22.7251 H   0  0  0  0  0  0  0  0  0  0  0  0
    5.5539   -5.0875   23.9175 H   0  0  0  0  0  0  0  0  0  0  0  0
    4.7203   -4.2729   22.5507 H   0  0  0  0  0  0  0  0  0  0  0  0
    9.2137   -1.1456   20.1180 H   0  0  0  0  0  0  0  0  0  0  0  0
    4.4680    1.4718   19.8726 H   0  0  0  0  0  0  0  0  0  0  0  0
    9.8044   -2.5948   21.6195 H   0  0  0  0  0  0  0  0  0  0  0  0
    9.9924    0.0169   24.3435 H   0  0  0  0  0  0  0  0  0  0  0  0
  1  2  1  0  0  0  0
  1  6  2  0  0  0  0
  1 17  1  0  0  0  0
  1 19  2  0  0  0  0
  2  4  1  0  0  0  0
  2 24  1  0  0  0  0
  3  7  2  0  0  0  0
  3 14  1  0  0  0  0
  4  8  1  0  0  0  0
  4 25  1  0  0  0  0
  4 26  1  0  0  0  0
  5 12  2  0  0  0  0
  5 15  1  0  0  0  0
  5 27  1  0  0  0  0
  7 21  1  0  0  0  0
  7 28  1  0  0  0  0
  8 22  1  0  0  0  0
  8 29  1  0  0  0  0
  8 30  1  0  0  0  0
  9 10  1  0  0  0  0
  9 21  2  0  0  0  0
  9 31  1  0  0  0  0
 10 14  2  0  0  0  0
 10 18  1  0  0  0  0
 11 18  1  0  0  0  0
 11 20  2  0  0  0  0
 11 22  1  0  0  0  0
 12 22  1  0  0  0  0
 12 23  1  0  0  0  0
 13 15  2  0  0  0  0
 13 16  1  0  0  0  0
 13 32  1  0  0  0  0
 14 33  1  0  0  0  0
 15 34  1  0  0  0  0
 16 23  2  0  0  0  0
 16 35  1  0  0  0  0
 17 36  1  0  0  0  0
 17 37  1  0  0  0  0
 17 38  1  0  0  0  0
 18 39  1  0  0  0  0
 21 40  1  0  0  0  0
 22 41  1  0  0  0  0
 23 42  1  0  0  0  0
M  END
> <compound_name>
ADA-UNI-f8e79267-2

> <provenance>
{"isomeric_smiles": "CS(=O)(=O)NCC[C@H](c1ccccc1)C(=O)Nc2cccnc2", "inchi": "InChI=1S/C16H19N3O3S/c1-23(21,22)18-11-9-15(13-6-3-2-4-7-13)16(20)19-14-8-5-10-17-12-14/h2-8,10,12,15,18H,9,11H2,1H3,(H,19,20)/t15-/m1/s1", "inchi_key": "FZUTWGQMCFORPQ-OAHLLOKOSA-N", "fixed_inchi": "InChI=1/C16H19N3O3S/c1-23(21,22)18-11-9-15(13-6-3-2-4-7-13)16(20)19-14-8-5-10-17-12-14/h2-8,10,12,15,18H,9,11H2,1H3,(H,19,20)/t15-/m1/s1/f/h19H", "fixed_inchikey": "FZUTWGQMCFORPQ-PCEGLKCHNA-N"}

> <data_format>
sdf

$$$$
