LIG(A-305)
  -OEChem-06042511363D

 44 47  0     0  0  0  0  0  0999 V2000
    6.6713    0.9795   16.9180 O   0  0  0  0  0  0  0  0  0  0  0  0
    6.0824    0.7015   17.9630 C   0  0  0  0  0  0  0  0  0  0  0  0
    6.4414   -0.3844   18.8161 C   0  0  0  0  0  0  0  0  0  0  0  0
    5.0425    1.4816   18.3961 N   0  0  0  0  0  0  0  0  0  0  0  0
    4.3775    1.3037   19.6061 C   0  0  0  0  0  0  0  0  0  0  0  0
    4.7705    0.2587   20.4641 C   0  0  0  0  0  0  0  0  0  0  0  0
    4.1446    0.1228   21.7032 C   0  0  0  0  0  0  0  0  0  0  0  0
    3.1147    0.9779   22.0562 C   0  0  0  0  0  0  0  0  0  0  0  0
    2.7047    1.9709   21.1942 C   0  0  0  0  0  0  0  0  0  0  0  0
    3.3346    2.1468   19.9732 C   0  0  0  0  0  0  0  0  0  0  0  0
    5.8254   -0.6324   19.9991 C   0  0  0  0  0  0  0  0  0  0  0  0
    6.1584   -1.8734   20.7361 C   0  0  0  0  0  0  0  0  0  0  0  0
    5.3033   -2.7363   20.8872 O   0  0  0  0  0  0  0  0  0  0  0  0
    7.3894   -2.0074   21.2321 N   0  0  0  0  0  0  0  0  0  0  0  0
    8.5675   -1.1475   21.3859 C   0  0  0  0  0  0  0  0  0  0  0  0
    7.8794   -3.0174   22.1751 C   0  0  0  0  0  0  0  0  0  0  0  0
    9.2415   -2.3085   22.1339 C   0  0  0  0  0  0  0  0  0  0  0  0
    9.5736   -2.0245   23.5169 O   0  0  0  0  0  0  0  0  0  0  0  0
   10.3657   -0.9455   23.8058 C   0  0  0  0  0  0  0  0  0  0  0  0
   10.0258   -0.2474   24.9818 C   0  0  0  0  0  0  0  0  0  0  0  0
    8.9878   -0.7834   25.6979 O   0  0  0  0  0  0  0  0  0  0  0  0
    8.6389   -0.1653   26.9379 C   0  0  0  0  0  0  0  0  0  0  0  0
   11.4356   -0.5186   23.0307 C   0  0  0  0  0  0  0  0  0  0  0  0
   12.1427    0.6123   23.4086 C   0  0  0  0  0  0  0  0  0  0  0  0
   11.7919    1.3114   24.5446 C   0  0  0  0  0  0  0  0  0  0  0  0
   10.7449    0.8825   25.3437 C   0  0  0  0  0  0  0  0  0  0  0  0
    7.2413   -1.0401   18.5052 H   0  0  0  0  0  0  0  0  0  0  0  0
    4.7412    2.2286   17.8040 H   0  0  0  0  0  0  0  0  0  0  0  0
    4.4635   -0.6497   22.3873 H   0  0  0  0  0  0  0  0  0  0  0  0
    2.6292    0.8656   23.0144 H   0  0  0  0  0  0  0  0  0  0  0  0
    1.8856    2.6175   21.4725 H   0  0  0  0  0  0  0  0  0  0  0  0
    3.0167    2.9363   19.3084 H   0  0  0  0  0  0  0  0  0  0  0  0
    9.0558   -0.8666   20.4412 H   0  0  0  0  0  0  0  0  0  0  0  0
    8.4003   -0.2465   21.9944 H   0  0  0  0  0  0  0  0  0  0  0  0
    7.3858   -3.0036   23.1580 H   0  0  0  0  0  0  0  0  0  0  0  0
    7.8862   -4.0450   21.7826 H   0  0  0  0  0  0  0  0  0  0  0  0
   10.0115   -2.8371   21.5528 H   0  0  0  0  0  0  0  0  0  0  0  0
    7.7942   -0.7042   27.3920 H   0  0  0  0  0  0  0  0  0  0  0  0
    9.5023   -0.1967   27.6187 H   0  0  0  0  0  0  0  0  0  0  0  0
    8.3518    0.8812   26.7579 H   0  0  0  0  0  0  0  0  0  0  0  0
   11.7147   -1.0632   22.1407 H   0  0  0  0  0  0  0  0  0  0  0  0
   12.9752    0.9488   22.8086 H   0  0  0  0  0  0  0  0  0  0  0  0
   12.3392    2.2026   24.8140 H   0  0  0  0  0  0  0  0  0  0  0  0
   10.4900    1.4242   26.2426 H   0  0  0  0  0  0  0  0  0  0  0  0
  1  2  2  0  0  0  0
  2  3  1  0  0  0  0
  2  4  1  0  0  0  0
  3 11  2  0  0  0  0
  3 27  1  0  0  0  0
  4  5  1  0  0  0  0
  4 28  1  0  0  0  0
  5  6  2  0  0  0  0
  5 10  1  0  0  0  0
  6  7  1  0  0  0  0
  6 11  1  0  0  0  0
  7  8  2  0  0  0  0
  7 29  1  0  0  0  0
  8  9  1  0  0  0  0
  8 30  1  0  0  0  0
  9 10  2  0  0  0  0
  9 31  1  0  0  0  0
 10 32  1  0  0  0  0
 11 12  1  0  0  0  0
 12 13  2  0  0  0  0
 12 14  1  0  0  0  0
 14 15  1  0  0  0  0
 14 16  1  0  0  0  0
 15 17  1  0  0  0  0
 15 33  1  0  0  0  0
 15 34  1  0  0  0  0
 16 17  1  0  0  0  0
 16 35  1  0  0  0  0
 16 36  1  0  0  0  0
 17 18  1  0  0  0  0
 17 37  1  0  0  0  0
 18 19  1  0  0  0  0
 19 20  2  0  0  0  0
 19 23  1  0  0  0  0
 20 21  1  0  0  0  0
 20 26  1  0  0  0  0
 21 22  1  0  0  0  0
 22 38  1  0  0  0  0
 22 39  1  0  0  0  0
 22 40  1  0  0  0  0
 23 24  2  0  0  0  0
 23 41  1  0  0  0  0
 24 25  1  0  0  0  0
 24 42  1  0  0  0  0
 25 26  2  0  0  0  0
 25 43  1  0  0  0  0
 26 44  1  0  0  0  0
M  END
> <compound_name>
ERI-UCB-a0b0dbcb-9

> <provenance>
{"isomeric_smiles": "COc1ccccc1OC2CN(C2)C(=O)c3cc(=O)[nH]c4c3cccc4", "inchi": "InChI=1S/C20H18N2O4/c1-25-17-8-4-5-9-18(17)26-13-11-22(12-13)20(24)15-10-19(23)21-16-7-3-2-6-14(15)16/h2-10,13H,11-12H2,1H3,(H,21,23)", "inchi_key": "CEVTZHLIFCWJPO-UHFFFAOYSA-N", "fixed_inchi": "InChI=1/C20H18N2O4/c1-25-17-8-4-5-9-18(17)26-13-11-22(12-13)20(24)15-10-19(23)21-16-7-3-2-6-14(15)16/h2-10,13H,11-12H2,1H3,(H,21,23)/f/h21H", "fixed_inchikey": "CEVTZHLIFCWJPO-PKSOQXRJNA-N"}

> <data_format>
sdf

$$$$
