LIG(A-305)
  -OEChem-06042511353D

 41 43  0     0  0  0  0  0  0999 V2000
    9.3476    0.7253   21.1093 O   0  0  0  0  0  0  0  0  0  0  0  0
    8.8726   -0.3486   21.4743 C   0  0  0  0  0  0  0  0  0  0  0  0
    7.4326   -0.7216   21.1773 C   0  0  0  0  0  0  0  0  0  0  0  0
    6.7776    0.0025   20.0193 C   0  0  0  0  0  0  0  0  0  0  0  0
    7.2505   -0.1445   18.7273 C   0  0  0  0  0  0  0  0  0  0  0  0
    6.6855    0.4065   17.6473 N   0  0  0  0  0  0  0  0  0  0  0  0
    5.5836    1.1366   17.8434 C   0  0  0  0  0  0  0  0  0  0  0  0
    5.0366    1.3606   19.0904 C   0  0  0  0  0  0  0  0  0  0  0  0
    5.6376    0.7995   20.2114 C   0  0  0  0  0  0  0  0  0  0  0  0
    5.0847    1.0965   21.5814 C   0  0  0  0  0  0  0  0  0  0  0  0
    9.5566   -1.2807   22.1882 N   0  0  0  0  0  0  0  0  0  0  0  0
   10.9076   -1.3128   22.6402 C   0  0  0  0  0  0  0  0  0  0  0  0
   11.2166   -1.9728   23.8542 C   0  0  0  0  0  0  0  0  0  0  0  0
   10.1206   -2.5728   24.6992 C   0  0  0  0  0  0  0  0  0  0  0  0
   10.5716   -2.9588   26.0402 N   0  3  0  0  0  0  0  0  0  0  0  0
   11.8615   -3.6779   25.9951 C   0  0  0  0  0  0  0  0  0  0  0  0
   12.9656   -2.7659   25.5171 C   0  0  0  0  0  0  0  0  0  0  0  0
   12.5626   -2.0569   24.2481 C   0  0  0  0  0  0  0  0  0  0  0  0
   13.5516   -1.4789   23.4551 C   0  0  0  0  0  0  0  0  0  0  0  0
   13.2286   -0.8289   22.2781 C   0  0  0  0  0  0  0  0  0  0  0  0
   11.9136   -0.7468   21.8632 C   0  0  0  0  0  0  0  0  0  0  0  0
    7.4036   -1.7992   20.9584 H   0  0  0  0  0  0  0  0  0  0  0  0
    6.8396   -0.5149   22.0804 H   0  0  0  0  0  0  0  0  0  0  0  0
    8.1362   -0.7451   18.5809 H   0  0  0  0  0  0  0  0  0  0  0  0
    5.0970    1.5728   16.9835 H   0  0  0  0  0  0  0  0  0  0  0  0
    4.1489    1.9668   19.1946 H   0  0  0  0  0  0  0  0  0  0  0  0
    5.8471    1.6160   22.1804 H   0  0  0  0  0  0  0  0  0  0  0  0
    4.1946    1.7359   21.4867 H   0  0  0  0  0  0  0  0  0  0  0  0
    4.8082    0.1543   22.0773 H   0  0  0  0  0  0  0  0  0  0  0  0
    9.0177   -2.0845   22.4405 H   0  0  0  0  0  0  0  0  0  0  0  0
    9.3130   -1.8329   24.8013 H   0  0  0  0  0  0  0  0  0  0  0  0
    9.7355   -3.4677   24.1886 H   0  0  0  0  0  0  0  0  0  0  0  0
   10.6789   -2.1345   26.5961 H   0  0  0  0  0  0  0  0  0  0  0  0
    9.8831   -3.5535   26.4553 H   0  0  0  0  0  0  0  0  0  0  0  0
   12.1065   -4.0433   27.0033 H   0  0  0  0  0  0  0  0  0  0  0  0
   11.7751   -4.5315   25.3067 H   0  0  0  0  0  0  0  0  0  0  0  0
   13.1786   -2.0186   26.2957 H   0  0  0  0  0  0  0  0  0  0  0  0
   13.8690   -3.3633   25.3252 H   0  0  0  0  0  0  0  0  0  0  0  0
   14.5847   -1.5394   23.7639 H   0  0  0  0  0  0  0  0  0  0  0  0
   14.0091   -0.3827   21.6797 H   0  0  0  0  0  0  0  0  0  0  0  0
   11.6672   -0.2452   20.9390 H   0  0  0  0  0  0  0  0  0  0  0  0
  1  2  2  0  0  0  0
  2  3  1  0  0  0  0
  2 11  1  0  0  0  0
  3  4  1  0  0  0  0
  3 22  1  0  0  0  0
  3 23  1  0  0  0  0
  4  5  2  0  0  0  0
  4  9  1  0  0  0  0
  5  6  1  0  0  0  0
  5 24  1  0  0  0  0
  6  7  2  0  0  0  0
  7  8  1  0  0  0  0
  7 25  1  0  0  0  0
  8  9  2  0  0  0  0
  8 26  1  0  0  0  0
  9 10  1  0  0  0  0
 10 27  1  0  0  0  0
 10 28  1  0  0  0  0
 10 29  1  0  0  0  0
 11 12  1  0  0  0  0
 11 30  1  0  0  0  0
 12 13  2  0  0  0  0
 12 21  1  0  0  0  0
 13 14  1  0  0  0  0
 13 18  1  0  0  0  0
 14 15  1  0  0  0  0
 14 31  1  0  0  0  0
 14 32  1  0  0  0  0
 15 16  1  0  0  0  0
 15 33  1  0  0  0  0
 15 34  1  0  0  0  0
 16 17  1  0  0  0  0
 16 35  1  0  0  0  0
 16 36  1  0  0  0  0
 17 18  1  0  0  0  0
 17 37  1  0  0  0  0
 17 38  1  0  0  0  0
 18 19  2  0  0  0  0
 19 20  1  0  0  0  0
 19 39  1  0  0  0  0
 20 21  2  0  0  0  0
 20 40  1  0  0  0  0
 21 41  1  0  0  0  0
M  CHG  1  15   1
M  END
> <compound_name>
ADA-UCB-6c2cb422-3

> <provenance>
{"isomeric_smiles": "Cc1ccncc1CC(=O)Nc2cccc3c2C[NH2+]CC3", "inchi": "InChI=1S/C17H19N3O/c1-12-5-7-18-10-14(12)9-17(21)20-16-4-2-3-13-6-8-19-11-15(13)16/h2-5,7,10,19H,6,8-9,11H2,1H3,(H,20,21)/p+1", "inchi_key": "IICDEQKQIDLVOQ-UHFFFAOYSA-O", "fixed_inchi": "InChI=1/C17H19N3O/c1-12-5-7-18-10-14(12)9-17(21)20-16-4-2-3-13-6-8-19-11-15(13)16/h2-5,7,10,19H,6,8-9,11H2,1H3,(H,20,21)/p+1/fC17H20N3O/h19-20H/q+1", "fixed_inchikey": "IICDEQKQIDLVOQ-VZQHKUCCNA-O"}

> <data_format>
sdf

$$$$
