LIG(B-306)
  -OEChem-06042511423D

 41 43  0     0  0  0  0  0  0999 V2000
  -14.2189   -2.6201  -21.3316 Cl  0  0  0  0  0  0  0  0  0  0  0  0
  -13.0199   -1.9680  -22.4137 C   0  0  0  0  0  0  0  0  0  0  0  0
  -13.4290   -1.2419  -23.5113 C   0  0  0  0  0  0  0  0  0  0  0  0
  -12.4637   -0.6817  -24.3344 C   0  0  0  0  0  0  0  0  0  0  0  0
  -11.1165   -0.8454  -24.0443 C   0  0  0  0  0  0  0  0  0  0  0  0
  -11.6827   -2.1581  -22.1231 C   0  0  0  0  0  0  0  0  0  0  0  0
  -10.7111   -1.5794  -22.9366 C   0  0  0  0  0  0  0  0  0  0  0  0
   -9.2445   -1.7345  -22.6017 C   0  0  0  0  0  0  0  0  0  0  0  0
   -8.7837   -0.8560  -21.4522 C   0  0  0  0  0  0  0  0  0  0  0  0
   -9.3535    0.1946  -21.1694 O   0  0  0  0  0  0  0  0  0  0  0  0
   -7.6948   -1.3196  -20.8002 N   0  0  0  0  0  0  0  0  0  0  0  0
   -6.9271   -0.6795  -19.8032 C   0  0  0  0  0  0  0  0  0  0  0  0
   -7.2547   -0.6623  -18.4471 C   0  0  0  0  0  0  0  0  0  0  0  0
   -6.5576   -0.0258  -17.4947 N   0  0  0  0  0  0  0  0  0  0  0  0
   -5.4779    0.6412  -17.8700 C   0  0  0  0  0  0  0  0  0  0  0  0
   -5.7527    0.0287  -20.2075 C   0  0  0  0  0  0  0  0  0  0  0  0
   -5.0130    0.7188  -19.2058 C   0  0  0  0  0  0  0  0  0  0  0  0
   -3.8533    1.4379  -19.5844 C   0  0  0  0  0  0  0  0  0  0  0  0
   -3.4311    1.4487  -20.8803 C   0  0  0  0  0  0  0  0  0  0  0  0
   -5.2810    0.0605  -21.5454 C   0  0  0  0  0  0  0  0  0  0  0  0
   -4.1281    0.7358  -21.8521 C   0  0  0  0  0  0  0  0  0  0  0  0
   -3.5379    0.5662  -23.1349 O   0  0  0  0  0  0  0  0  0  0  0  0
   -3.3235    1.8083  -24.1284 S   0  0  0  0  0  0  0  0  0  0  0  0
   -3.0664    1.2543  -25.4133 O   0  0  0  0  0  0  0  0  0  0  0  0
   -2.3582    2.6748  -23.5465 O   0  0  0  0  0  0  0  0  0  0  0  0
   -4.8861    2.5822  -24.1227 C   0  0  0  0  0  0  0  0  0  0  0  0
  -14.4794   -1.1119  -23.7259 H   0  0  0  0  0  0  0  0  0  0  0  0
  -12.7615   -0.1158  -25.2047 H   0  0  0  0  0  0  0  0  0  0  0  0
  -10.3740   -0.3965  -24.6875 H   0  0  0  0  0  0  0  0  0  0  0  0
  -11.3920   -2.7525  -21.2696 H   0  0  0  0  0  0  0  0  0  0  0  0
   -9.0593   -2.7846  -22.3318 H   0  0  0  0  0  0  0  0  0  0  0  0
   -8.6556   -1.4759  -23.4939 H   0  0  0  0  0  0  0  0  0  0  0  0
   -7.3928   -2.2374  -21.0579 H   0  0  0  0  0  0  0  0  0  0  0  0
   -8.1379   -1.2032  -18.1408 H   0  0  0  0  0  0  0  0  0  0  0  0
   -4.9147    1.1599  -17.1083 H   0  0  0  0  0  0  0  0  0  0  0  0
   -3.2967    1.9844  -18.8374 H   0  0  0  0  0  0  0  0  0  0  0  0
   -2.5519    2.0128  -21.1546 H   0  0  0  0  0  0  0  0  0  0  0  0
   -5.8312   -0.4481  -22.3232 H   0  0  0  0  0  0  0  0  0  0  0  0
   -4.8618    3.4635  -24.7805 H   0  0  0  0  0  0  0  0  0  0  0  0
   -5.6467    1.8751  -24.4853 H   0  0  0  0  0  0  0  0  0  0  0  0
   -5.1359    2.8962  -23.0985 H   0  0  0  0  0  0  0  0  0  0  0  0
  1  2  1  0  0  0  0
  2  3  2  0  0  0  0
  2  6  1  0  0  0  0
  3  4  1  0  0  0  0
  3 27  1  0  0  0  0
  4  5  2  0  0  0  0
  4 28  1  0  0  0  0
  5  7  1  0  0  0  0
  5 29  1  0  0  0  0
  6  7  2  0  0  0  0
  6 30  1  0  0  0  0
  7  8  1  0  0  0  0
  8  9  1  0  0  0  0
  8 31  1  0  0  0  0
  8 32  1  0  0  0  0
  9 10  2  0  0  0  0
  9 11  1  0  0  0  0
 11 12  1  0  0  0  0
 11 33  1  0  0  0  0
 12 13  2  0  0  0  0
 12 16  1  0  0  0  0
 13 14  1  0  0  0  0
 13 34  1  0  0  0  0
 14 15  2  0  0  0  0
 15 17  1  0  0  0  0
 15 35  1  0  0  0  0
 16 17  2  0  0  0  0
 16 20  1  0  0  0  0
 17 18  1  0  0  0  0
 18 19  2  0  0  0  0
 18 36  1  0  0  0  0
 19 21  1  0  0  0  0
 19 37  1  0  0  0  0
 20 21  2  0  0  0  0
 20 38  1  0  0  0  0
 21 22  1  0  0  0  0
 22 23  1  0  0  0  0
 23 24  2  0  0  0  0
 23 25  2  0  0  0  0
 23 26  1  0  0  0  0
 26 39  1  0  0  0  0
 26 40  1  0  0  0  0
 26 41  1  0  0  0  0
M  END
> <compound_name>
PET-UNK-7fb4f80a-2

> <provenance>
{"isomeric_smiles": "CS(=O)(=O)Oc1ccc2cncc(c2c1)NC(=O)Cc3cccc(c3)Cl", "inchi": "InChI=1S/C18H15ClN2O4S/c1-26(23,24)25-15-6-5-13-10-20-11-17(16(13)9-15)21-18(22)8-12-3-2-4-14(19)7-12/h2-7,9-11H,8H2,1H3,(H,21,22)", "inchi_key": "QXFKQZYRPVUBJK-UHFFFAOYSA-N", "fixed_inchi": "InChI=1/C18H15ClN2O4S/c1-26(23,24)25-15-6-5-13-10-20-11-17(16(13)9-15)21-18(22)8-12-3-2-4-14(19)7-12/h2-7,9-11H,8H2,1H3,(H,21,22)/f/h21H", "fixed_inchikey": "QXFKQZYRPVUBJK-PKSOQXRJNA-N"}

> <data_format>
sdf

$$$$
