LIG(A-305)
  -OEChem-06042511343D

 27 28  0     0  0  0  0  0  0999 V2000
    5.3854    1.3137   17.9451 C   0  0  0  0  0  0  0  0  0  0  0  0
    9.1394   -1.0426   22.3890 N   0  0  0  0  0  0  0  0  0  0  0  0
    6.4674    0.5957   17.6131 N   0  0  0  0  0  0  0  0  0  0  0  0
   13.0104    0.0222   23.4861 C   0  0  0  0  0  0  0  0  0  0  0  0
   11.5073   -1.3457   22.1820 C   0  0  0  0  0  0  0  0  0  0  0  0
   12.7754   -0.8857   22.4740 C   0  0  0  0  0  0  0  0  0  0  0  0
    4.8644    1.3577   19.2241 C   0  0  0  0  0  0  0  0  0  0  0  0
   11.9424    0.4402   24.2681 C   0  0  0  0  0  0  0  0  0  0  0  0
    7.4094   -0.7335   20.9171 N   0  0  0  0  0  0  0  0  0  0  0  0
    6.6344   -0.1044   19.9101 C   0  0  0  0  0  0  0  0  0  0  0  0
    9.1494    0.7405   20.9661 O   0  0  0  0  0  0  0  0  0  0  0  0
    8.6074   -0.2725   21.3921 C   0  0  0  0  0  0  0  0  0  0  0  0
    5.4964    0.6306   20.2201 C   0  0  0  0  0  0  0  0  0  0  0  0
   10.4344   -0.8617   22.9240 C   0  0  0  0  0  0  0  0  0  0  0  0
    7.0684   -0.0994   18.5851 C   0  0  0  0  0  0  0  0  0  0  0  0
   10.6574   -0.0067   23.9971 C   0  0  0  0  0  0  0  0  0  0  0  0
   14.1173   -1.4817   21.5410 Cl  0  0  0  0  0  0  0  0  0  0  0  0
    4.8952    1.8879   17.1728 H   0  0  0  0  0  0  0  0  0  0  0  0
    8.5765   -1.7799   22.7628 H   0  0  0  0  0  0  0  0  0  0  0  0
   14.0059    0.4003   23.6663 H   0  0  0  0  0  0  0  0  0  0  0  0
   11.3510   -2.0668   21.3934 H   0  0  0  0  0  0  0  0  0  0  0  0
    3.9849    1.9452   19.4425 H   0  0  0  0  0  0  0  0  0  0  0  0
   12.1128    1.1172   25.0921 H   0  0  0  0  0  0  0  0  0  0  0  0
    7.0526   -1.5805   21.3112 H   0  0  0  0  0  0  0  0  0  0  0  0
    5.1082    0.6351   21.2279 H   0  0  0  0  0  0  0  0  0  0  0  0
    7.9368   -0.6886   18.3298 H   0  0  0  0  0  0  0  0  0  0  0  0
    9.8322    0.3089   24.6183 H   0  0  0  0  0  0  0  0  0  0  0  0
  1  3  2  0  0  0  0
  1  7  1  0  0  0  0
  1 18  1  0  0  0  0
  2 12  1  0  0  0  0
  2 14  1  0  0  0  0
  2 19  1  0  0  0  0
  3 15  1  0  0  0  0
  4  6  1  0  0  0  0
  4  8  2  0  0  0  0
  4 20  1  0  0  0  0
  5  6  2  0  0  0  0
  5 14  1  0  0  0  0
  5 21  1  0  0  0  0
  6 17  1  0  0  0  0
  7 13  2  0  0  0  0
  7 22  1  0  0  0  0
  8 16  1  0  0  0  0
  8 23  1  0  0  0  0
  9 10  1  0  0  0  0
  9 12  1  0  0  0  0
  9 24  1  0  0  0  0
 10 13  1  0  0  0  0
 10 15  2  0  0  0  0
 11 12  2  0  0  0  0
 13 25  1  0  0  0  0
 14 16  2  0  0  0  0
 15 26  1  0  0  0  0
 16 27  1  0  0  0  0
M  END
> <compound_name>
DAR-DIA-23aa0b97-14

> <provenance>
{"isomeric_smiles": "c1cc(cc(c1)Cl)NC(=O)Nc2cccnc2", "inchi": "InChI=1S/C12H10ClN3O/c13-9-3-1-4-10(7-9)15-12(17)16-11-5-2-6-14-8-11/h1-8H,(H2,15,16,17)", "inchi_key": "QGLBBAUVPATXPV-UHFFFAOYSA-N", "fixed_inchi": "InChI=1/C12H10ClN3O/c13-9-3-1-4-10(7-9)15-12(17)16-11-5-2-6-14-8-11/h1-8H,(H2,15,16,17)/f/h15-16H", "fixed_inchikey": "QGLBBAUVPATXPV-LUXCBXFANA-N"}

> <data_format>
sdf

$$$$
