LIG(A-305)
  -OEChem-06042511303D

 39 40  0     0  0  0  0  0  0999 V2000
   13.2825   -1.1095   22.5523 C   0  0  0  0  0  0  0  0  0  0  0  0
    7.3505    2.6890   29.3219 C   0  0  0  0  0  0  0  0  0  0  0  0
    6.1386    2.5900   29.9771 C   0  0  0  0  0  0  0  0  0  0  0  0
    5.6327    3.7031   30.8471 C   0  0  0  0  0  0  0  0  0  0  0  0
    5.4085    1.4280   29.8153 C   0  0  0  0  0  0  0  0  0  0  0  0
    5.8634    0.3850   29.0222 C   0  0  0  0  0  0  0  0  0  0  0  0
   11.7787   -0.1764   24.1875 C   0  0  0  0  0  0  0  0  0  0  0  0
   11.0699   -0.4513   25.4916 C   0  0  0  0  0  0  0  0  0  0  0  0
   10.7287   -2.7623   24.7727 C   0  0  0  0  0  0  0  0  0  0  0  0
   11.5025   -2.4344   23.5136 C   0  0  0  0  0  0  0  0  0  0  0  0
    8.8449   -1.4922   25.7859 C   0  0  0  0  0  0  0  0  0  0  0  0
    8.4330   -0.2462   26.5589 C   0  0  0  0  0  0  0  0  0  0  0  0
    7.0783    0.5039   28.3661 C   0  0  0  0  0  0  0  0  0  0  0  0
    7.8263    1.6669   28.5169 C   0  0  0  0  0  0  0  0  0  0  0  0
   12.4856   -1.3764   23.7494 N   0  3  0  0  0  0  0  0  0  0  0  0
   10.1238   -1.5633   25.3588 N   0  0  0  0  0  0  0  0  0  0  0  0
    8.0128   -2.3762   25.5761 O   0  0  0  0  0  0  0  0  0  0  0  0
    7.5071   -0.5441   27.5931 O   0  0  0  0  0  0  0  0  0  0  0  0
   14.0088   -0.3113   22.7652 H   0  0  0  0  0  0  0  0  0  0  0  0
   13.8184   -2.0237   22.2574 H   0  0  0  0  0  0  0  0  0  0  0  0
   12.6194   -0.7929   21.7337 H   0  0  0  0  0  0  0  0  0  0  0  0
    7.9416    3.5850   29.4401 H   0  0  0  0  0  0  0  0  0  0  0  0
    6.3609    4.5276   30.8489 H   0  0  0  0  0  0  0  0  0  0  0  0
    4.6701    4.0649   30.4567 H   0  0  0  0  0  0  0  0  0  0  0  0
    5.4960    3.3325   31.8738 H   0  0  0  0  0  0  0  0  0  0  0  0
    4.4586    1.3294   30.3196 H   0  0  0  0  0  0  0  0  0  0  0  0
    5.2745   -0.5142   28.9167 H   0  0  0  0  0  0  0  0  0  0  0  0
   11.0412    0.1127   23.4243 H   0  0  0  0  0  0  0  0  0  0  0  0
   12.5002    0.6419   24.3288 H   0  0  0  0  0  0  0  0  0  0  0  0
   11.8163   -0.7054   26.2586 H   0  0  0  0  0  0  0  0  0  0  0  0
   10.5212    0.4513   25.7986 H   0  0  0  0  0  0  0  0  0  0  0  0
    9.9326   -3.4803   24.5263 H   0  0  0  0  0  0  0  0  0  0  0  0
   11.4138   -3.2121   25.5065 H   0  0  0  0  0  0  0  0  0  0  0  0
   12.0260   -3.3387   23.1699 H   0  0  0  0  0  0  0  0  0  0  0  0
   10.7980   -2.1012   22.7374 H   0  0  0  0  0  0  0  0  0  0  0  0
    9.3302    0.2076   27.0053 H   0  0  0  0  0  0  0  0  0  0  0  0
    7.9694    0.4673   25.8618 H   0  0  0  0  0  0  0  0  0  0  0  0
    8.7736    1.7726   28.0089 H   0  0  0  0  0  0  0  0  0  0  0  0
   13.0998   -1.6701   24.4819 H   0  0  0  0  0  0  0  0  0  0  0  0
  1 15  1  0  0  0  0
  1 19  1  0  0  0  0
  1 20  1  0  0  0  0
  1 21  1  0  0  0  0
  2  3  2  0  0  0  0
  2 14  1  0  0  0  0
  2 22  1  0  0  0  0
  3  4  1  0  0  0  0
  3  5  1  0  0  0  0
  4 23  1  0  0  0  0
  4 24  1  0  0  0  0
  4 25  1  0  0  0  0
  5  6  2  0  0  0  0
  5 26  1  0  0  0  0
  6 13  1  0  0  0  0
  6 27  1  0  0  0  0
  7  8  1  0  0  0  0
  7 15  1  0  0  0  0
  7 28  1  0  0  0  0
  7 29  1  0  0  0  0
  8 16  1  0  0  0  0
  8 30  1  0  0  0  0
  8 31  1  0  0  0  0
  9 10  1  0  0  0  0
  9 16  1  0  0  0  0
  9 32  1  0  0  0  0
  9 33  1  0  0  0  0
 10 15  1  0  0  0  0
 10 34  1  0  0  0  0
 10 35  1  0  0  0  0
 11 12  1  0  0  0  0
 11 16  1  0  0  0  0
 11 17  2  0  0  0  0
 12 18  1  0  0  0  0
 12 36  1  0  0  0  0
 12 37  1  0  0  0  0
 13 14  2  0  0  0  0
 13 18  1  0  0  0  0
 14 38  1  0  0  0  0
 15 39  1  0  0  0  0
M  CHG  1  15   1
M  END
> <compound_name>
AAR-POS-d2a4d1df-6

> <provenance>
{"isomeric_smiles": "Cc1ccc(cc1)OCC(=O)N2CC[NH+](CC2)C", "inchi": "InChI=1S/C14H20N2O2/c1-12-3-5-13(6-4-12)18-11-14(17)16-9-7-15(2)8-10-16/h3-6H,7-11H2,1-2H3/p+1", "inchi_key": "GIIIJZOPGUFGBF-UHFFFAOYSA-O", "fixed_inchi": "InChI=1/C14H20N2O2/c1-12-3-5-13(6-4-12)18-11-14(17)16-9-7-15(2)8-10-16/h3-6H,7-11H2,1-2H3/p+1/fC14H21N2O2/h15H/q+1", "fixed_inchikey": "GIIIJZOPGUFGBF-QXYFZJGFNA-O"}

> <data_format>
sdf

$$$$
