LIG(A-306)
  -OEChem-06042511393D

 48 50  0     1  0  0  0  0  0999 V2000
   13.5701   -1.6676   21.8679 Cl  0  0  0  0  0  0  0  0  0  0  0  0
   12.2981   -0.7870   22.6463 C   0  0  0  0  0  0  0  0  0  0  0  0
   12.5832    0.2776   23.4837 C   0  0  0  0  0  0  0  0  0  0  0  0
   14.2100    0.7929   23.7552 Cl  0  0  0  0  0  0  0  0  0  0  0  0
   11.5587    0.9799   24.0779 C   0  0  0  0  0  0  0  0  0  0  0  0
   10.2491    0.6224   23.8346 C   0  0  0  0  0  0  0  0  0  0  0  0
   10.9874   -1.1455   22.3891 C   0  0  0  0  0  0  0  0  0  0  0  0
    9.9459   -0.4353   22.9843 C   0  0  0  0  0  0  0  0  0  0  0  0
    8.4782   -0.8037   22.7143 C   0  0  1  0  0  0  0  0  0  0  0  0
    8.4005   -2.2821   22.3140 C   0  0  0  0  0  0  0  0  0  0  0  0
    7.7015   -0.6299   23.9526 N   0  0  0  0  0  0  0  0  0  0  0  0
    7.0361    0.4250   24.4537 C   0  0  0  0  0  0  0  0  0  0  0  0
    7.0609    1.5484   23.9595 O   0  0  0  0  0  0  0  0  0  0  0  0
    6.2383    0.1868   25.7154 C   0  0  0  0  0  0  0  0  0  0  0  0
    5.8574   -1.1760   25.6975 O   0  0  0  0  0  0  0  0  0  0  0  0
    5.3774   -1.6315   26.9549 C   0  0  0  0  0  0  0  0  0  0  0  0
    7.9617    0.1485   21.5823 C   0  0  0  0  0  0  0  0  0  0  0  0
    8.1764    1.3534   21.6107 O   0  0  0  0  0  0  0  0  0  0  0  0
    7.3594   -0.4463   20.5310 N   0  0  0  0  0  0  0  0  0  0  0  0
    6.4009    0.0133   19.5983 C   0  0  0  0  0  0  0  0  0  0  0  0
    5.4152    0.9933   19.9631 C   0  0  0  0  0  0  0  0  0  0  0  0
    4.9658    1.2080   21.2927 C   0  0  0  0  0  0  0  0  0  0  0  0
    3.9278    2.0549   21.5587 C   0  0  0  0  0  0  0  0  0  0  0  0
    3.2803    2.7232   20.5342 C   0  0  0  0  0  0  0  0  0  0  0  0
    3.6758    2.5596   19.2407 C   0  0  0  0  0  0  0  0  0  0  0  0
    4.7507    1.6936   18.9176 C   0  0  0  0  0  0  0  0  0  0  0  0
    5.1271    1.4030   17.5882 C   0  0  0  0  0  0  0  0  0  0  0  0
    6.0149    0.4852   17.2505 N   0  0  0  0  0  0  0  0  0  0  0  0
    6.6003   -0.2002   18.2382 C   0  0  0  0  0  0  0  0  0  0  0  0
   11.7804    1.8092   24.7333 H   0  0  0  0  0  0  0  0  0  0  0  0
    9.4493    1.1706   24.3103 H   0  0  0  0  0  0  0  0  0  0  0  0
   10.7714   -1.9729   21.7293 H   0  0  0  0  0  0  0  0  0  0  0  0
    7.3530   -2.5550   22.1187 H   0  0  0  0  0  0  0  0  0  0  0  0
    8.9980   -2.4476   21.4054 H   0  0  0  0  0  0  0  0  0  0  0  0
    8.7953   -2.9042   23.1308 H   0  0  0  0  0  0  0  0  0  0  0  0
    7.6616   -1.4475   24.5270 H   0  0  0  0  0  0  0  0  0  0  0  0
    6.8557    0.3974   26.6011 H   0  0  0  0  0  0  0  0  0  0  0  0
    5.3465    0.8306   25.7286 H   0  0  0  0  0  0  0  0  0  0  0  0
    5.0982   -2.6927   26.8788 H   0  0  0  0  0  0  0  0  0  0  0  0
    6.1658   -1.5133   27.7128 H   0  0  0  0  0  0  0  0  0  0  0  0
    4.4966   -1.0407   27.2468 H   0  0  0  0  0  0  0  0  0  0  0  0
    7.6456   -1.3930   20.3835 H   0  0  0  0  0  0  0  0  0  0  0  0
    5.4528    0.6929   22.1075 H   0  0  0  0  0  0  0  0  0  0  0  0
    3.6087    2.2046   22.5797 H   0  0  0  0  0  0  0  0  0  0  0  0
    2.4541    3.3803   20.7622 H   0  0  0  0  0  0  0  0  0  0  0  0
    3.1654    3.0950   18.4538 H   0  0  0  0  0  0  0  0  0  0  0  0
    4.6587    1.9680   16.7959 H   0  0  0  0  0  0  0  0  0  0  0  0
    7.2857   -0.9858   17.9562 H   0  0  0  0  0  0  0  0  0  0  0  0
  1  2  1  0  0  0  0
  2  3  2  0  0  0  0
  2  7  1  0  0  0  0
  3  4  1  0  0  0  0
  3  5  1  0  0  0  0
  5  6  2  0  0  0  0
  5 30  1  0  0  0  0
  6  8  1  0  0  0  0
  6 31  1  0  0  0  0
  7  8  2  0  0  0  0
  7 32  1  0  0  0  0
  8  9  1  0  0  0  0
  9 10  1  0  0  0  0
  9 11  1  0  0  0  0
  9 17  1  0  0  0  0
 10 33  1  0  0  0  0
 10 34  1  0  0  0  0
 10 35  1  0  0  0  0
 11 12  1  0  0  0  0
 11 36  1  0  0  0  0
 12 13  2  0  0  0  0
 12 14  1  0  0  0  0
 14 15  1  0  0  0  0
 14 37  1  0  0  0  0
 14 38  1  0  0  0  0
 15 16  1  0  0  0  0
 16 39  1  0  0  0  0
 16 40  1  0  0  0  0
 16 41  1  0  0  0  0
 17 18  2  0  0  0  0
 17 19  1  0  0  0  0
 19 20  1  0  0  0  0
 19 42  1  0  0  0  0
 20 21  2  0  0  0  0
 20 29  1  0  0  0  0
 21 22  1  0  0  0  0
 21 26  1  0  0  0  0
 22 23  2  0  0  0  0
 22 43  1  0  0  0  0
 23 24  1  0  0  0  0
 23 44  1  0  0  0  0
 24 25  2  0  0  0  0
 24 45  1  0  0  0  0
 25 26  1  0  0  0  0
 25 46  1  0  0  0  0
 26 27  2  0  0  0  0
 27 28  1  0  0  0  0
 27 47  1  0  0  0  0
 28 29  2  0  0  0  0
 29 48  1  0  0  0  0
M  END
> <compound_name>
MAT-POS-e9e99895-11

> <provenance>
{"isomeric_smiles": "C[C@@](c1ccc(c(c1)Cl)Cl)(C(=O)Nc2cncc3c2cccc3)NC(=O)COC", "inchi": "InChI=1S/C21H19Cl2N3O3/c1-21(26-19(27)12-29-2,14-7-8-16(22)17(23)9-14)20(28)25-18-11-24-10-13-5-3-4-6-15(13)18/h3-11H,12H2,1-2H3,(H,25,28)(H,26,27)/t21-/m1/s1", "inchi_key": "MDXYQARUSPNBMR-OAQYLSRUSA-N", "fixed_inchi": "InChI=1/C21H19Cl2N3O3/c1-21(26-19(27)12-29-2,14-7-8-16(22)17(23)9-14)20(28)25-18-11-24-10-13-5-3-4-6-15(13)18/h3-11H,12H2,1-2H3,(H,25,28)(H,26,27)/t21-/m1/s1/f/h25-26H", "fixed_inchikey": "MDXYQARUSPNBMR-ZKBZYLMYNA-N"}

> <data_format>
sdf

$$$$
