LIG(A-306)
  -OEChem-06042511413D

 60 64  0     1  0  0  0  0  0999 V2000
    6.1821    1.0900   24.8940 O   0  0  0  0  0  0  0  0  0  0  0  0
    7.4186    1.7989   24.7784 S   0  0  0  0  0  0  0  0  0  0  0  0
    7.8645    2.6035   25.8714 O   0  0  0  0  0  0  0  0  0  0  0  0
    7.3605    2.8294   23.3256 C   0  0  0  0  0  0  0  0  0  0  0  0
    6.8085    4.2498   23.4698 C   0  0  0  0  0  0  0  0  0  0  0  0
    5.3116    4.2384   23.8000 C   0  0  0  0  0  0  0  0  0  0  0  0
    4.7455    5.6386   23.8002 C   0  0  0  0  0  0  0  0  0  0  0  0
    4.9957    6.3053   22.5515 O   0  0  0  0  0  0  0  0  0  0  0  0
    6.4049    6.4305   22.3208 C   0  0  0  0  0  0  0  0  0  0  0  0
    7.0650    5.0757   22.2099 C   0  0  0  0  0  0  0  0  0  0  0  0
    8.5782    0.6989   24.4826 N   0  0  3  0  0  0  0  0  0  0  0  0
    9.9528    0.9628   24.9257 C   0  0  0  0  0  0  0  0  0  0  0  0
    8.2982   -0.6935   24.0877 C   0  0  0  0  0  0  0  0  0  0  0  0
    9.0884   -0.9417   22.8013 C   0  0  2  0  0  0  0  0  0  0  0  0
   10.5571   -0.6108   23.0057 C   0  0  0  0  0  0  0  0  0  0  0  0
   10.9443    0.3295   23.9764 C   0  0  0  0  0  0  0  0  0  0  0  0
   12.2851    0.7002   24.0670 C   0  0  0  0  0  0  0  0  0  0  0  0
   13.2348    0.1594   23.2201 C   0  0  0  0  0  0  0  0  0  0  0  0
   11.5288   -1.1858   22.1836 C   0  0  0  0  0  0  0  0  0  0  0  0
   12.8476   -0.7902   22.3044 C   0  0  0  0  0  0  0  0  0  0  0  0
   14.0539   -1.5316   21.2874 Cl  0  0  0  0  0  0  0  0  0  0  0  0
    8.5099   -0.1137   21.6485 C   0  0  0  0  0  0  0  0  0  0  0  0
    9.0630    0.9073   21.2316 O   0  0  0  0  0  0  0  0  0  0  0  0
    7.3598   -0.6056   21.1172 N   0  0  0  0  0  0  0  0  0  0  0  0
    6.6436   -0.1064   20.0039 C   0  0  0  0  0  0  0  0  0  0  0  0
    5.4985    0.7269   20.2263 C   0  0  0  0  0  0  0  0  0  0  0  0
    4.9192    0.9497   21.5025 C   0  0  0  0  0  0  0  0  0  0  0  0
    3.8299    1.7613   21.6478 C   0  0  0  0  0  0  0  0  0  0  0  0
    3.2660    2.3950   20.5480 C   0  0  0  0  0  0  0  0  0  0  0  0
    3.7794    2.2032   19.2970 C   0  0  0  0  0  0  0  0  0  0  0  0
    4.8986    1.3569   19.0975 C   0  0  0  0  0  0  0  0  0  0  0  0
    5.4488    1.0871   17.8210 C   0  0  0  0  0  0  0  0  0  0  0  0
    6.4891    0.2910   17.6109 N   0  0  0  0  0  0  0  0  0  0  0  0
    7.0590   -0.2787   18.6829 C   0  0  0  0  0  0  0  0  0  0  0  0
    8.3890    2.9158   22.9453 H   0  0  0  0  0  0  0  0  0  0  0  0
    6.7371    2.3108   22.5823 H   0  0  0  0  0  0  0  0  0  0  0  0
    7.3350    4.7341   24.3055 H   0  0  0  0  0  0  0  0  0  0  0  0
    4.7818    3.6366   23.0469 H   0  0  0  0  0  0  0  0  0  0  0  0
    5.1662    3.7918   24.7947 H   0  0  0  0  0  0  0  0  0  0  0  0
    3.6594    5.5855   23.9663 H   0  0  0  0  0  0  0  0  0  0  0  0
    5.2132    6.2136   24.6130 H   0  0  0  0  0  0  0  0  0  0  0  0
    6.5671    6.9859   21.3853 H   0  0  0  0  0  0  0  0  0  0  0  0
    6.8575    6.9823   23.1579 H   0  0  0  0  0  0  0  0  0  0  0  0
    8.1490    5.2107   22.0803 H   0  0  0  0  0  0  0  0  0  0  0  0
    6.6551    4.5436   21.3388 H   0  0  0  0  0  0  0  0  0  0  0  0
   10.1219    2.0493   24.9544 H   0  0  0  0  0  0  0  0  0  0  0  0
   10.0959    0.5427   25.9323 H   0  0  0  0  0  0  0  0  0  0  0  0
    8.6265   -1.3866   24.8762 H   0  0  0  0  0  0  0  0  0  0  0  0
    7.2218   -0.8287   23.9057 H   0  0  0  0  0  0  0  0  0  0  0  0
    9.0025   -2.0069   22.5406 H   0  0  0  0  0  0  0  0  0  0  0  0
   12.5872    1.4220   24.8114 H   0  0  0  0  0  0  0  0  0  0  0  0
   14.2651    0.4781   23.2770 H   0  0  0  0  0  0  0  0  0  0  0  0
   11.2511   -1.9354   21.4575 H   0  0  0  0  0  0  0  0  0  0  0  0
    6.9756   -1.4131   21.5648 H   0  0  0  0  0  0  0  0  0  0  0  0
    5.3456    0.4707   22.3714 H   0  0  0  0  0  0  0  0  0  0  0  0
    3.4027    1.9117   22.6282 H   0  0  0  0  0  0  0  0  0  0  0  0
    2.4142    3.0451   20.6833 H   0  0  0  0  0  0  0  0  0  0  0  0
    3.3282    2.7014   18.4515 H   0  0  0  0  0  0  0  0  0  0  0  0
    4.9925    1.5596   16.9638 H   0  0  0  0  0  0  0  0  0  0  0  0
    7.9084   -0.9229   18.5098 H   0  0  0  0  0  0  0  0  0  0  0  0
  1  2  2  0  0  0  0
  2  3  2  0  0  0  0
  2  4  1  0  0  0  0
  2 11  1  0  0  0  0
  4  5  1  0  0  0  0
  4 35  1  0  0  0  0
  4 36  1  0  0  0  0
  5  6  1  0  0  0  0
  5 10  1  0  0  0  0
  5 37  1  0  0  0  0
  6  7  1  0  0  0  0
  6 38  1  0  0  0  0
  6 39  1  0  0  0  0
  7  8  1  0  0  0  0
  7 40  1  0  0  0  0
  7 41  1  0  0  0  0
  8  9  1  0  0  0  0
  9 10  1  0  0  0  0
  9 42  1  0  0  0  0
  9 43  1  0  0  0  0
 10 44  1  0  0  0  0
 10 45  1  0  0  0  0
 11 12  1  0  0  0  0
 11 13  1  0  0  0  0
 12 16  1  0  0  0  0
 12 46  1  0  0  0  0
 12 47  1  0  0  0  0
 13 14  1  0  0  0  0
 13 48  1  0  0  0  0
 13 49  1  0  0  0  0
 14 15  1  0  0  0  0
 14 22  1  0  0  0  0
 14 50  1  0  0  0  0
 15 16  2  0  0  0  0
 15 19  1  0  0  0  0
 16 17  1  0  0  0  0
 17 18  2  0  0  0  0
 17 51  1  0  0  0  0
 18 20  1  0  0  0  0
 18 52  1  0  0  0  0
 19 20  2  0  0  0  0
 19 53  1  0  0  0  0
 20 21  1  0  0  0  0
 22 23  2  0  0  0  0
 22 24  1  0  0  0  0
 24 25  1  0  0  0  0
 24 54  1  0  0  0  0
 25 26  2  0  0  0  0
 25 34  1  0  0  0  0
 26 27  1  0  0  0  0
 26 31  1  0  0  0  0
 27 28  2  0  0  0  0
 27 55  1  0  0  0  0
 28 29  1  0  0  0  0
 28 56  1  0  0  0  0
 29 30  2  0  0  0  0
 29 57  1  0  0  0  0
 30 31  1  0  0  0  0
 30 58  1  0  0  0  0
 31 32  2  0  0  0  0
 32 33  1  0  0  0  0
 32 59  1  0  0  0  0
 33 34  2  0  0  0  0
 34 60  1  0  0  0  0
M  END
> <compound_name>
EDJ-MED-4fff0a85-1

> <provenance>
{"isomeric_smiles": "c1ccc2c(c1)cncc2NC(=O)[C@@H]3CN(Cc4c3cc(cc4)Cl)S(=O)(=O)CC5CCOCC5", "inchi": "InChI=1S/C25H26ClN3O4S/c26-20-6-5-19-14-29(34(31,32)16-17-7-9-33-10-8-17)15-23(22(19)11-20)25(30)28-24-13-27-12-18-3-1-2-4-21(18)24/h1-6,11-13,17,23H,7-10,14-16H2,(H,28,30)/t23-/m1/s1", "inchi_key": "UZYMUGANHORAQE-HSZRJFAPSA-N", "fixed_inchi": "InChI=1/C25H26ClN3O4S/c26-20-6-5-19-14-29(34(31,32)16-17-7-9-33-10-8-17)15-23(22(19)11-20)25(30)28-24-13-27-12-18-3-1-2-4-21(18)24/h1-6,11-13,17,23H,7-10,14-16H2,(H,28,30)/t23-/m1/s1/f/h28H", "fixed_inchikey": "UZYMUGANHORAQE-CJPXULGHNA-N"}

> <data_format>
sdf

$$$$
