LIG(A-305)
  -OEChem-06042511373D

 36 37  0     0  0  0  0  0  0999 V2000
    7.1412   -2.4959   18.5559 C   0  0  0  0  0  0  0  0  0  0  0  0
    6.5902   -3.2669   19.7419 C   0  0  0  0  0  0  0  0  0  0  0  0
    5.8271   -4.2048   19.5689 O   0  0  0  0  0  0  0  0  0  0  0  0
    7.0802   -2.9610   20.9599 N   0  0  0  0  0  0  0  0  0  0  0  0
    7.1212   -4.0170   21.9859 C   0  0  0  0  0  0  0  0  0  0  0  0
    6.9283   -3.4420   23.3849 C   0  0  0  0  0  0  0  0  0  0  0  0
    7.8193   -1.7180   21.2459 C   0  0  0  0  0  0  0  0  0  0  0  0
    7.5814   -1.2560   22.6749 C   0  0  0  0  0  0  0  0  0  0  0  0
    7.8623   -2.3361   23.6309 N   0  3  0  0  0  0  0  0  0  0  0  0
    9.2703   -2.7751   23.5838 C   0  0  0  0  0  0  0  0  0  0  0  0
   10.2654   -1.6812   23.8938 C   0  0  0  0  0  0  0  0  0  0  0  0
   11.3824   -1.4842   23.0868 C   0  0  0  0  0  0  0  0  0  0  0  0
   12.2554   -0.4523   23.3738 C   0  0  0  0  0  0  0  0  0  0  0  0
   13.7384   -0.3214   22.4688 Cl  0  0  0  0  0  0  0  0  0  0  0  0
   12.0315    0.4237   24.4168 C   0  0  0  0  0  0  0  0  0  0  0  0
   10.0545   -0.8342   24.9759 C   0  0  0  0  0  0  0  0  0  0  0  0
   10.9215    0.2177   25.2219 C   0  0  0  0  0  0  0  0  0  0  0  0
   10.6586    1.0507   26.2669 O   0  0  0  0  0  0  0  0  0  0  0  0
    6.7442   -2.9236   17.6234 H   0  0  0  0  0  0  0  0  0  0  0  0
    6.8398   -1.4408   18.6326 H   0  0  0  0  0  0  0  0  0  0  0  0
    8.2391   -2.5643   18.5524 H   0  0  0  0  0  0  0  0  0  0  0  0
    6.3202   -4.7433   21.7840 H   0  0  0  0  0  0  0  0  0  0  0  0
    8.0963   -4.5239   21.9387 H   0  0  0  0  0  0  0  0  0  0  0  0
    5.8973   -3.0711   23.4826 H   0  0  0  0  0  0  0  0  0  0  0  0
    7.1049   -4.2343   24.1273 H   0  0  0  0  0  0  0  0  0  0  0  0
    8.8947   -1.8981   21.1010 H   0  0  0  0  0  0  0  0  0  0  0  0
    7.4824   -0.9324   20.5535 H   0  0  0  0  0  0  0  0  0  0  0  0
    8.2411   -0.4030   22.8918 H   0  0  0  0  0  0  0  0  0  0  0  0
    6.5319   -0.9445   22.7823 H   0  0  0  0  0  0  0  0  0  0  0  0
    7.6841   -1.9844   24.5499 H   0  0  0  0  0  0  0  0  0  0  0  0
    9.4053   -3.5837   24.3174 H   0  0  0  0  0  0  0  0  0  0  0  0
    9.4800   -3.1575   22.5739 H   0  0  0  0  0  0  0  0  0  0  0  0
   11.5652   -2.1329   22.2429 H   0  0  0  0  0  0  0  0  0  0  0  0
   12.7039    1.2485   24.6012 H   0  0  0  0  0  0  0  0  0  0  0  0
    9.2096   -0.9973   25.6286 H   0  0  0  0  0  0  0  0  0  0  0  0
   10.8087    1.9503   26.0009 H   0  0  0  0  0  0  0  0  0  0  0  0
  1  2  1  0  0  0  0
  1 19  1  0  0  0  0
  1 20  1  0  0  0  0
  1 21  1  0  0  0  0
  2  3  2  0  0  0  0
  2  4  1  0  0  0  0
  4  5  1  0  0  0  0
  4  7  1  0  0  0  0
  5  6  1  0  0  0  0
  5 22  1  0  0  0  0
  5 23  1  0  0  0  0
  6  9  1  0  0  0  0
  6 24  1  0  0  0  0
  6 25  1  0  0  0  0
  7  8  1  0  0  0  0
  7 26  1  0  0  0  0
  7 27  1  0  0  0  0
  8  9  1  0  0  0  0
  8 28  1  0  0  0  0
  8 29  1  0  0  0  0
  9 10  1  0  0  0  0
  9 30  1  0  0  0  0
 10 11  1  0  0  0  0
 10 31  1  0  0  0  0
 10 32  1  0  0  0  0
 11 12  2  0  0  0  0
 11 16  1  0  0  0  0
 12 13  1  0  0  0  0
 12 33  1  0  0  0  0
 13 14  1  0  0  0  0
 13 15  2  0  0  0  0
 15 17  1  0  0  0  0
 15 34  1  0  0  0  0
 16 17  2  0  0  0  0
 16 35  1  0  0  0  0
 17 18  1  0  0  0  0
 18 36  1  0  0  0  0
M  CHG  1   9   1
M  END
> <compound_name>
MAT-POS-2db6411e-2

> <provenance>
{"isomeric_smiles": "CC(=O)N1CC[NH+](CC1)Cc2cc(cc(c2)Cl)O", "inchi": "InChI=1S/C13H17ClN2O2/c1-10(17)16-4-2-15(3-5-16)9-11-6-12(14)8-13(18)7-11/h6-8,18H,2-5,9H2,1H3/p+1", "inchi_key": "CZIBGCQCFNYACK-UHFFFAOYSA-O", "fixed_inchi": "InChI=1/C13H17ClN2O2/c1-10(17)16-4-2-15(3-5-16)9-11-6-12(14)8-13(18)7-11/h6-8,18H,2-5,9H2,1H3/p+1/fC13H18ClN2O2/h15H/q+1", "fixed_inchikey": "CZIBGCQCFNYACK-AVDIDYDBNA-O"}

> <data_format>
sdf

$$$$
