LIG(A-305)
  -OEChem-06042511353D

 36 36  0     1  0  0  0  0  0999 V2000
    9.7077    0.9773   21.0771 O   0  0  0  0  0  0  0  0  0  0  0  0
    9.1886   -0.0178   21.5650 C   0  0  0  0  0  0  0  0  0  0  0  0
    9.7436   -0.6709   22.8079 C   0  0  0  0  0  0  0  0  0  0  0  0
   10.9266   -1.6028   22.5229 C   0  0  2  0  0  0  0  0  0  0  0  0
   11.0356   -2.6519   23.6268 C   0  0  0  0  0  0  0  0  0  0  0  0
   12.2456   -0.7948   22.3180 C   0  0  0  0  0  0  0  0  0  0  0  0
   13.4316   -1.6588   21.9170 C   0  0  0  0  0  0  0  0  0  0  0  0
   12.5986    0.0611   23.5231 C   0  0  0  0  0  0  0  0  0  0  0  0
    8.0687   -0.5877   21.0829 N   0  0  0  0  0  0  0  0  0  0  0  0
    7.2357   -0.0407   20.0749 C   0  0  0  0  0  0  0  0  0  0  0  0
    6.0147    0.5803   20.4299 C   0  0  0  0  0  0  0  0  0  0  0  0
    5.6186    0.8052   21.8669 C   0  0  0  0  0  0  0  0  0  0  0  0
    5.2067    1.0404   19.3959 C   0  0  0  0  0  0  0  0  0  0  0  0
    5.6348    0.9155   18.0889 C   0  0  0  0  0  0  0  0  0  0  0  0
    6.7988    0.3555   17.7389 N   0  0  0  0  0  0  0  0  0  0  0  0
    7.5747   -0.1166   18.7219 C   0  0  0  0  0  0  0  0  0  0  0  0
   10.0782    0.1179   23.4978 H   0  0  0  0  0  0  0  0  0  0  0  0
    8.9428   -1.2573   23.2822 H   0  0  0  0  0  0  0  0  0  0  0  0
   10.7160   -2.1298   21.5806 H   0  0  0  0  0  0  0  0  0  0  0  0
   11.8857   -3.3180   23.4178 H   0  0  0  0  0  0  0  0  0  0  0  0
   11.1913   -2.1515   24.5940 H   0  0  0  0  0  0  0  0  0  0  0  0
   10.1081   -3.2421   23.6644 H   0  0  0  0  0  0  0  0  0  0  0  0
   12.0589   -0.1046   21.4821 H   0  0  0  0  0  0  0  0  0  0  0  0
   14.3217   -1.0249   21.7908 H   0  0  0  0  0  0  0  0  0  0  0  0
   13.6222   -2.4063   22.7010 H   0  0  0  0  0  0  0  0  0  0  0  0
   13.2086   -2.1703   20.9690 H   0  0  0  0  0  0  0  0  0  0  0  0
   13.5330    0.6066   23.3250 H   0  0  0  0  0  0  0  0  0  0  0  0
   11.7877    0.7798   23.7124 H   0  0  0  0  0  0  0  0  0  0  0  0
   12.7304   -0.5836   24.4046 H   0  0  0  0  0  0  0  0  0  0  0  0
    7.8019   -1.4712   21.4681 H   0  0  0  0  0  0  0  0  0  0  0  0
    6.3685    1.4419   22.3591 H   0  0  0  0  0  0  0  0  0  0  0  0
    4.6369    1.2999   21.9034 H   0  0  0  0  0  0  0  0  0  0  0  0
    5.5612   -0.1624   22.3870 H   0  0  0  0  0  0  0  0  0  0  0  0
    4.2504    1.4925   19.6136 H   0  0  0  0  0  0  0  0  0  0  0  0
    4.9939    1.2909   17.3048 H   0  0  0  0  0  0  0  0  0  0  0  0
    8.5127   -0.5807   18.4549 H   0  0  0  0  0  0  0  0  0  0  0  0
  1  2  2  0  0  0  0
  2  3  1  0  0  0  0
  2  9  1  0  0  0  0
  3  4  1  0  0  0  0
  3 17  1  0  0  0  0
  3 18  1  0  0  0  0
  4  5  1  0  0  0  0
  4  6  1  0  0  0  0
  4 19  1  0  0  0  0
  5 20  1  0  0  0  0
  5 21  1  0  0  0  0
  5 22  1  0  0  0  0
  6  7  1  0  0  0  0
  6  8  1  0  0  0  0
  6 23  1  0  0  0  0
  7 24  1  0  0  0  0
  7 25  1  0  0  0  0
  7 26  1  0  0  0  0
  8 27  1  0  0  0  0
  8 28  1  0  0  0  0
  8 29  1  0  0  0  0
  9 10  1  0  0  0  0
  9 30  1  0  0  0  0
 10 11  2  0  0  0  0
 10 16  1  0  0  0  0
 11 12  1  0  0  0  0
 11 13  1  0  0  0  0
 12 31  1  0  0  0  0
 12 32  1  0  0  0  0
 12 33  1  0  0  0  0
 13 14  2  0  0  0  0
 13 34  1  0  0  0  0
 14 15  1  0  0  0  0
 14 35  1  0  0  0  0
 15 16  2  0  0  0  0
 16 36  1  0  0  0  0
M  END
> <compound_name>
MAT-POS-590ac91e-11

> <provenance>
{"isomeric_smiles": "Cc1ccncc1NC(=O)C[C@H](C)C(C)C", "inchi": "InChI=1S/C13H20N2O/c1-9(2)11(4)7-13(16)15-12-8-14-6-5-10(12)3/h5-6,8-9,11H,7H2,1-4H3,(H,15,16)/t11-/m0/s1", "inchi_key": "PPQIRWKGFHIKDH-NSHDSACASA-N", "fixed_inchi": "InChI=1/C13H20N2O/c1-9(2)11(4)7-13(16)15-12-8-14-6-5-10(12)3/h5-6,8-9,11H,7H2,1-4H3,(H,15,16)/t11-/m0/s1/f/h15H", "fixed_inchikey": "PPQIRWKGFHIKDH-CEIQYGLCNA-N"}

> <data_format>
sdf

$$$$
