LIG(A-306)
  -OEChem-06042511403D

 31 32  0     0  0  0  0  0  0999 V2000
   14.0003   -1.4248   21.4101 Cl  0  0  0  0  0  0  0  0  0  0  0  0
   12.6903   -0.7231   22.3196 C   0  0  0  0  0  0  0  0  0  0  0  0
   12.9565    0.2937   23.2141 C   0  0  0  0  0  0  0  0  0  0  0  0
   11.9011    0.8591   23.9094 C   0  0  0  0  0  0  0  0  0  0  0  0
   10.6034    0.4236   23.6871 C   0  0  0  0  0  0  0  0  0  0  0  0
   11.4047   -1.1765   22.0964 C   0  0  0  0  0  0  0  0  0  0  0  0
   10.3382   -0.5822   22.7646 C   0  0  0  0  0  0  0  0  0  0  0  0
    8.9163   -0.9607   22.4176 C   0  0  0  0  0  0  0  0  0  0  0  0
    8.3061   -0.0275   21.3896 C   0  0  0  0  0  0  0  0  0  0  0  0
    8.8531    1.0269   21.0616 O   0  0  0  0  0  0  0  0  0  0  0  0
    7.1409   -0.4654   20.8592 N   0  0  0  0  0  0  0  0  0  0  0  0
    6.4712    0.0988   19.7487 C   0  0  0  0  0  0  0  0  0  0  0  0
    5.3881    0.9667   19.9417 C   0  0  0  0  0  0  0  0  0  0  0  0
    4.8807    1.2745   21.3253 C   0  0  0  0  0  0  0  0  0  0  0  0
    3.8002    2.0651   21.3224 F   0  0  0  0  0  0  0  0  0  0  0  0
    5.7914    1.9097   22.0700 F   0  0  0  0  0  0  0  0  0  0  0  0
    4.5153    0.1784   21.9921 F   0  0  0  0  0  0  0  0  0  0  0  0
    6.8968   -0.1418   18.4442 C   0  0  0  0  0  0  0  0  0  0  0  0
    6.3322    0.4294   17.3756 N   0  0  0  0  0  0  0  0  0  0  0  0
    5.3071    1.2612   17.5876 C   0  0  0  0  0  0  0  0  0  0  0  0
    4.7945    1.5629   18.8371 C   0  0  0  0  0  0  0  0  0  0  0  0
   13.9673    0.6413   23.3685 H   0  0  0  0  0  0  0  0  0  0  0  0
   12.0893    1.6429   24.6281 H   0  0  0  0  0  0  0  0  0  0  0  0
    9.7889    0.8712   24.2373 H   0  0  0  0  0  0  0  0  0  0  0  0
   11.2279   -1.9885   21.4066 H   0  0  0  0  0  0  0  0  0  0  0  0
    8.9114   -1.9838   22.0134 H   0  0  0  0  0  0  0  0  0  0  0  0
    8.3075   -0.9252   23.3330 H   0  0  0  0  0  0  0  0  0  0  0  0
    6.7147   -1.2600   21.2916 H   0  0  0  0  0  0  0  0  0  0  0  0
    7.7214   -0.8216   18.2890 H   0  0  0  0  0  0  0  0  0  0  0  0
    4.8495    1.7280   16.7279 H   0  0  0  0  0  0  0  0  0  0  0  0
    3.9603    2.2396   18.9494 H   0  0  0  0  0  0  0  0  0  0  0  0
  1  2  1  0  0  0  0
  2  3  2  0  0  0  0
  2  6  1  0  0  0  0
  3  4  1  0  0  0  0
  3 22  1  0  0  0  0
  4  5  2  0  0  0  0
  4 23  1  0  0  0  0
  5  7  1  0  0  0  0
  5 24  1  0  0  0  0
  6  7  2  0  0  0  0
  6 25  1  0  0  0  0
  7  8  1  0  0  0  0
  8  9  1  0  0  0  0
  8 26  1  0  0  0  0
  8 27  1  0  0  0  0
  9 10  2  0  0  0  0
  9 11  1  0  0  0  0
 11 12  1  0  0  0  0
 11 28  1  0  0  0  0
 12 13  2  0  0  0  0
 12 18  1  0  0  0  0
 13 14  1  0  0  0  0
 13 21  1  0  0  0  0
 14 15  1  0  0  0  0
 14 16  1  0  0  0  0
 14 17  1  0  0  0  0
 18 19  2  0  0  0  0
 18 29  1  0  0  0  0
 19 20  1  0  0  0  0
 20 21  2  0  0  0  0
 20 30  1  0  0  0  0
 21 31  1  0  0  0  0
M  END
> <compound_name>
SAM-UNK-2684b532-12

> <provenance>
{"isomeric_smiles": "c1cc(cc(c1)Cl)CC(=O)Nc2cnccc2C(F)(F)F", "inchi": "InChI=1S/C14H10ClF3N2O/c15-10-3-1-2-9(6-10)7-13(21)20-12-8-19-5-4-11(12)14(16,17)18/h1-6,8H,7H2,(H,20,21)", "inchi_key": "LTODPBLUNCYZHX-UHFFFAOYSA-N", "fixed_inchi": "InChI=1/C14H10ClF3N2O/c15-10-3-1-2-9(6-10)7-13(21)20-12-8-19-5-4-11(12)14(16,17)18/h1-6,8H,7H2,(H,20,21)/f/h20H", "fixed_inchikey": "LTODPBLUNCYZHX-UYBDAZJANA-N"}

> <data_format>
sdf

$$$$
