LIG(A-305)
  -OEChem-06042511373D

 38 40  0     1  0  0  0  0  0999 V2000
    6.5601    1.1679   16.9438 O   0  0  0  0  0  0  0  0  0  0  0  0
    6.0851    0.9089   18.0438 C   0  0  0  0  0  0  0  0  0  0  0  0
    4.9162    1.4110   18.4369 N   0  0  0  0  0  0  0  0  0  0  0  0
    4.4642    1.6261   19.8279 C   0  0  0  0  0  0  0  0  0  0  0  0
    5.1982    0.6981   20.7839 C   0  0  0  0  0  0  0  0  0  0  0  0
    6.8381    0.0549   19.0208 C   0  0  0  0  0  0  0  0  0  0  0  0
    6.6732    0.6270   20.4278 C   0  0  2  0  0  0  0  0  0  0  0  0
    7.4372   -0.1411   21.4078 N   0  0  0  0  0  0  0  0  0  0  0  0
    8.6692    0.2129   21.7838 C   0  0  0  0  0  0  0  0  0  0  0  0
    9.2952    1.1108   21.2267 O   0  0  0  0  0  0  0  0  0  0  0  0
    9.2182   -0.5361   23.0008 C   0  0  2  0  0  0  0  0  0  0  0  0
    8.5573    0.0049   24.2808 C   0  0  0  0  0  0  0  0  0  0  0  0
    9.1434    1.3459   24.6357 C   0  0  0  0  0  0  0  0  0  0  0  0
   10.5604    1.2488   24.8796 O   0  0  0  0  0  0  0  0  0  0  0  0
   10.7212   -0.3402   23.0367 C   0  0  0  0  0  0  0  0  0  0  0  0
   11.5731   -1.0323   22.1737 C   0  0  0  0  0  0  0  0  0  0  0  0
   12.9292   -0.7694   22.1926 C   0  0  0  0  0  0  0  0  0  0  0  0
   13.9761   -1.6445   21.1146 Cl  0  0  0  0  0  0  0  0  0  0  0  0
   11.2853    0.5928   23.9136 C   0  0  0  0  0  0  0  0  0  0  0  0
   12.6453    0.8567   23.9076 C   0  0  0  0  0  0  0  0  0  0  0  0
   13.4733    0.1696   23.0406 C   0  0  0  0  0  0  0  0  0  0  0  0
    4.2756    1.6702   17.7140 H   0  0  0  0  0  0  0  0  0  0  0  0
    4.6628    2.6694   20.1143 H   0  0  0  0  0  0  0  0  0  0  0  0
    3.3841    1.4278   19.8908 H   0  0  0  0  0  0  0  0  0  0  0  0
    5.0915    1.0779   21.8107 H   0  0  0  0  0  0  0  0  0  0  0  0
    4.7608   -0.3091   20.7181 H   0  0  0  0  0  0  0  0  0  0  0  0
    6.4418   -0.9709   18.9930 H   0  0  0  0  0  0  0  0  0  0  0  0
    7.9047    0.0433   18.7521 H   0  0  0  0  0  0  0  0  0  0  0  0
    7.0624    1.6557   20.4146 H   0  0  0  0  0  0  0  0  0  0  0  0
    7.0245   -0.9582   21.8102 H   0  0  0  0  0  0  0  0  0  0  0  0
    8.9901   -1.6076   22.9013 H   0  0  0  0  0  0  0  0  0  0  0  0
    7.4753    0.1128   24.1144 H   0  0  0  0  0  0  0  0  0  0  0  0
    8.7328   -0.6995   25.1071 H   0  0  0  0  0  0  0  0  0  0  0  0
    8.9698    2.0445   23.8040 H   0  0  0  0  0  0  0  0  0  0  0  0
    8.6487    1.7249   25.5422 H   0  0  0  0  0  0  0  0  0  0  0  0
   11.1735   -1.7703   21.4940 H   0  0  0  0  0  0  0  0  0  0  0  0
   13.0569    1.5967   24.5780 H   0  0  0  0  0  0  0  0  0  0  0  0
   14.5351    0.3667   23.0280 H   0  0  0  0  0  0  0  0  0  0  0  0
  1  2  2  0  0  0  0
  2  3  1  0  0  0  0
  2  6  1  0  0  0  0
  3  4  1  0  0  0  0
  3 22  1  0  0  0  0
  4  5  1  0  0  0  0
  4 23  1  0  0  0  0
  4 24  1  0  0  0  0
  5  7  1  0  0  0  0
  5 25  1  0  0  0  0
  5 26  1  0  0  0  0
  6  7  1  0  0  0  0
  6 27  1  0  0  0  0
  6 28  1  0  0  0  0
  7  8  1  0  0  0  0
  7 29  1  0  0  0  0
  8  9  1  0  0  0  0
  8 30  1  0  0  0  0
  9 10  2  0  0  0  0
  9 11  1  0  0  0  0
 11 12  1  0  0  0  0
 11 15  1  0  0  0  0
 11 31  1  0  0  0  0
 12 13  1  0  0  0  0
 12 32  1  0  0  0  0
 12 33  1  0  0  0  0
 13 14  1  0  0  0  0
 13 34  1  0  0  0  0
 13 35  1  0  0  0  0
 14 19  1  0  0  0  0
 15 16  2  0  0  0  0
 15 19  1  0  0  0  0
 16 17  1  0  0  0  0
 16 36  1  0  0  0  0
 17 18  1  0  0  0  0
 17 21  2  0  0  0  0
 19 20  2  0  0  0  0
 20 21  1  0  0  0  0
 20 37  1  0  0  0  0
 21 38  1  0  0  0  0
M  END
> <compound_name>
ALP-POS-8b8a49e1-4

> <provenance>
{"isomeric_smiles": "c1cc2c(cc1Cl)[C@@H](CCO2)C(=O)N[C@@H]3CCNC(=O)C3", "inchi": "InChI=1S/C15H17ClN2O3/c16-9-1-2-13-12(7-9)11(4-6-21-13)15(20)18-10-3-5-17-14(19)8-10/h1-2,7,10-11H,3-6,8H2,(H,17,19)(H,18,20)/t10-,11-/m1/s1", "inchi_key": "LDVBEXIDVVQUFA-GHMZBOCLSA-N", "fixed_inchi": "InChI=1/C15H17ClN2O3/c16-9-1-2-13-12(7-9)11(4-6-21-13)15(20)18-10-3-5-17-14(19)8-10/h1-2,7,10-11H,3-6,8H2,(H,17,19)(H,18,20)/t10-,11-/m1/s1/f/h17-18H", "fixed_inchikey": "LDVBEXIDVVQUFA-BCOLJJRFNA-N"}

> <data_format>
sdf

$$$$
