LIG(A-305)
  -OEChem-06042511343D

 31 32  0     0  0  0  0  0  0999 V2000
   13.8122   -1.9305   21.3365 Br  0  0  0  0  0  0  0  0  0  0  0  0
   12.5181   -1.0016   22.3675 C   0  0  0  0  0  0  0  0  0  0  0  0
   12.9370   -0.0546   23.2815 C   0  0  0  0  0  0  0  0  0  0  0  0
   11.9800    0.5634   24.0715 C   0  0  0  0  0  0  0  0  0  0  0  0
   10.6380    0.2613   23.9045 C   0  0  0  0  0  0  0  0  0  0  0  0
   11.1902   -1.3247   22.2005 C   0  0  0  0  0  0  0  0  0  0  0  0
   10.2291   -0.6647   22.9554 C   0  0  0  0  0  0  0  0  0  0  0  0
    8.7661   -0.8878   22.6634 C   0  0  0  0  0  0  0  0  0  0  0  0
    8.3281   -0.1198   21.4334 C   0  0  0  0  0  0  0  0  0  0  0  0
    8.9461    0.8602   21.0234 O   0  0  0  0  0  0  0  0  0  0  0  0
    7.1831   -0.5619   20.8833 N   0  0  0  0  0  0  0  0  0  0  0  0
    6.5381    0.0531   19.7883 C   0  0  0  0  0  0  0  0  0  0  0  0
    5.3961    0.8380   20.0043 C   0  0  0  0  0  0  0  0  0  0  0  0
    4.8220    1.0559   21.3823 C   0  0  0  0  0  0  0  0  0  0  0  0
    7.0492   -0.0499   18.4974 C   0  0  0  0  0  0  0  0  0  0  0  0
    6.5112    0.5701   17.4433 N   0  0  0  0  0  0  0  0  0  0  0  0
    5.4231    1.3170   17.6603 C   0  0  0  0  0  0  0  0  0  0  0  0
    4.8381    1.4700   18.9003 C   0  0  0  0  0  0  0  0  0  0  0  0
   13.9826    0.1979   23.3783 H   0  0  0  0  0  0  0  0  0  0  0  0
   12.2811    1.2822   24.8191 H   0  0  0  0  0  0  0  0  0  0  0  0
    9.9005    0.7532   24.5212 H   0  0  0  0  0  0  0  0  0  0  0  0
   10.8987   -2.0836   21.4895 H   0  0  0  0  0  0  0  0  0  0  0  0
    8.5936   -1.9612   22.4962 H   0  0  0  0  0  0  0  0  0  0  0  0
    8.1729   -0.5512   23.5264 H   0  0  0  0  0  0  0  0  0  0  0  0
    6.7613   -1.3793   21.2755 H   0  0  0  0  0  0  0  0  0  0  0  0
    5.5752    1.5398   22.0215 H   0  0  0  0  0  0  0  0  0  0  0  0
    3.9331    1.7000   21.3114 H   0  0  0  0  0  0  0  0  0  0  0  0
    4.5387    0.0868   21.8189 H   0  0  0  0  0  0  0  0  0  0  0  0
    7.9249   -0.6620   18.3400 H   0  0  0  0  0  0  0  0  0  0  0  0
    4.9784    1.8281   16.8192 H   0  0  0  0  0  0  0  0  0  0  0  0
    3.9519    2.0771   19.0120 H   0  0  0  0  0  0  0  0  0  0  0  0
  1  2  1  0  0  0  0
  2  3  2  0  0  0  0
  2  6  1  0  0  0  0
  3  4  1  0  0  0  0
  3 19  1  0  0  0  0
  4  5  2  0  0  0  0
  4 20  1  0  0  0  0
  5  7  1  0  0  0  0
  5 21  1  0  0  0  0
  6  7  2  0  0  0  0
  6 22  1  0  0  0  0
  7  8  1  0  0  0  0
  8  9  1  0  0  0  0
  8 23  1  0  0  0  0
  8 24  1  0  0  0  0
  9 10  2  0  0  0  0
  9 11  1  0  0  0  0
 11 12  1  0  0  0  0
 11 25  1  0  0  0  0
 12 13  2  0  0  0  0
 12 15  1  0  0  0  0
 13 14  1  0  0  0  0
 13 18  1  0  0  0  0
 14 26  1  0  0  0  0
 14 27  1  0  0  0  0
 14 28  1  0  0  0  0
 15 16  2  0  0  0  0
 15 29  1  0  0  0  0
 16 17  1  0  0  0  0
 17 18  2  0  0  0  0
 17 30  1  0  0  0  0
 18 31  1  0  0  0  0
M  END
> <compound_name>
JAN-GHE-83b26c96-12

> <provenance>
{"isomeric_smiles": "Cc1ccncc1NC(=O)Cc2cccc(c2)Br", "inchi": "InChI=1S/C14H13BrN2O/c1-10-5-6-16-9-13(10)17-14(18)8-11-3-2-4-12(15)7-11/h2-7,9H,8H2,1H3,(H,17,18)", "inchi_key": "ZTLMWKAKNVXEJW-UHFFFAOYSA-N", "fixed_inchi": "InChI=1/C14H13BrN2O/c1-10-5-6-16-9-13(10)17-14(18)8-11-3-2-4-12(15)7-11/h2-7,9H,8H2,1H3,(H,17,18)/f/h17H", "fixed_inchikey": "ZTLMWKAKNVXEJW-HCKMINDGNA-N"}

> <data_format>
sdf

$$$$
