LIG(A-305)
  -OEChem-06042511303D

 49 51  0     0  0  0  0  0  0999 V2000
    9.2336   -0.7457   22.4979 N   0  0  0  0  0  0  0  0  0  0  0  0
    6.5649    0.6355   17.6508 N   0  0  0  0  0  0  0  0  0  0  0  0
    7.6124   -5.4311   27.0194 C   0  0  0  0  0  0  0  0  0  0  0  0
   13.2824    0.1325   23.1313 C   0  0  0  0  0  0  0  0  0  0  0  0
    5.4408    1.3214   17.8977 C   0  0  0  0  0  0  0  0  0  0  0  0
    8.7235   -3.5089   25.0207 C   0  0  0  0  0  0  0  0  0  0  0  0
   12.3103    0.6874   23.9503 C   0  0  0  0  0  0  0  0  0  0  0  0
    5.4727    0.7593   20.2097 C   0  0  0  0  0  0  0  0  0  0  0  0
    8.4125   -1.5158   23.4478 C   0  0  0  0  0  0  0  0  0  0  0  0
   11.5866   -1.1755   22.0221 C   0  0  0  0  0  0  0  0  0  0  0  0
   10.6115   -0.5726   22.8150 C   0  0  0  0  0  0  0  0  0  0  0  0
    9.0505   -5.5420   26.5245 C   0  0  0  0  0  0  0  0  0  0  0  0
    7.2794   -3.4180   25.5315 C   0  0  0  0  0  0  0  0  0  0  0  0
    4.8587    1.4073   19.1537 C   0  0  0  0  0  0  0  0  0  0  0  0
    9.2066   -4.9599   25.1166 C   0  0  0  0  0  0  0  0  0  0  0  0
    7.1194   -3.9901   26.9415 C   0  0  0  0  0  0  0  0  0  0  0  0
    7.1418    0.0085   18.6788 C   0  0  0  0  0  0  0  0  0  0  0  0
    8.6266   -0.0816   21.4049 C   0  0  0  0  0  0  0  0  0  0  0  0
   12.9046   -0.8005   22.1912 C   0  0  0  0  0  0  0  0  0  0  0  0
    7.3937   -0.5167   21.0418 N   0  0  0  0  0  0  0  0  0  0  0  0
    9.2056    0.8464   20.8530 O   0  0  0  0  0  0  0  0  0  0  0  0
    8.8706   -2.9598   23.5907 C   0  0  0  0  0  0  0  0  0  0  0  0
   10.9774    0.3343   23.8021 C   0  0  0  0  0  0  0  0  0  0  0  0
    6.6467    0.0513   19.9847 C   0  0  0  0  0  0  0  0  0  0  0  0
   14.1197   -1.5123   21.1643 Cl  0  0  0  0  0  0  0  0  0  0  0  0
    6.9669   -6.0668   26.3956 H   0  0  0  0  0  0  0  0  0  0  0  0
    7.5638   -5.7724   28.0640 H   0  0  0  0  0  0  0  0  0  0  0  0
   14.3170    0.4266   23.2290 H   0  0  0  0  0  0  0  0  0  0  0  0
    4.9631    1.8342   17.0760 H   0  0  0  0  0  0  0  0  0  0  0  0
    9.3549   -2.8979   25.6826 H   0  0  0  0  0  0  0  0  0  0  0  0
   12.5938    1.4006   24.7101 H   0  0  0  0  0  0  0  0  0  0  0  0
    5.0436    0.8030   21.1999 H   0  0  0  0  0  0  0  0  0  0  0  0
    8.4681   -1.0307   24.4334 H   0  0  0  0  0  0  0  0  0  0  0  0
    7.3705   -1.5113   23.0951 H   0  0  0  0  0  0  0  0  0  0  0  0
   11.3164   -1.9217   21.2895 H   0  0  0  0  0  0  0  0  0  0  0  0
    9.7088   -4.9924   27.2134 H   0  0  0  0  0  0  0  0  0  0  0  0
    9.3415   -6.6027   26.5070 H   0  0  0  0  0  0  0  0  0  0  0  0
    6.9753   -2.3610   25.5432 H   0  0  0  0  0  0  0  0  0  0  0  0
    6.6270   -3.9797   24.8468 H   0  0  0  0  0  0  0  0  0  0  0  0
    3.9474    1.9671   19.3034 H   0  0  0  0  0  0  0  0  0  0  0  0
    8.6214   -5.5729   24.4153 H   0  0  0  0  0  0  0  0  0  0  0  0
   10.2697   -4.9963   24.8365 H   0  0  0  0  0  0  0  0  0  0  0  0
    6.0557   -3.9607   27.2205 H   0  0  0  0  0  0  0  0  0  0  0  0
    7.7001   -3.3752   27.6448 H   0  0  0  0  0  0  0  0  0  0  0  0
    8.0392   -0.5624   18.4908 H   0  0  0  0  0  0  0  0  0  0  0  0
    6.9923   -1.2795   21.5488 H   0  0  0  0  0  0  0  0  0  0  0  0
    8.2698   -3.5848   22.9137 H   0  0  0  0  0  0  0  0  0  0  0  0
    9.9302   -3.0197   23.3015 H   0  0  0  0  0  0  0  0  0  0  0  0
   10.2274    0.7622   24.4508 H   0  0  0  0  0  0  0  0  0  0  0  0
  1  9  1  0  0  0  0
  1 11  1  0  0  0  0
  1 18  1  0  0  0  0
  2  5  2  0  0  0  0
  2 17  1  0  0  0  0
  3 12  1  0  0  0  0
  3 16  1  0  0  0  0
  3 26  1  0  0  0  0
  3 27  1  0  0  0  0
  4  7  2  0  0  0  0
  4 19  1  0  0  0  0
  4 28  1  0  0  0  0
  5 14  1  0  0  0  0
  5 29  1  0  0  0  0
  6 13  1  0  0  0  0
  6 15  1  0  0  0  0
  6 22  1  0  0  0  0
  6 30  1  0  0  0  0
  7 23  1  0  0  0  0
  7 31  1  0  0  0  0
  8 14  2  0  0  0  0
  8 24  1  0  0  0  0
  8 32  1  0  0  0  0
  9 22  1  0  0  0  0
  9 33  1  0  0  0  0
  9 34  1  0  0  0  0
 10 11  1  0  0  0  0
 10 19  2  0  0  0  0
 10 35  1  0  0  0  0
 11 23  2  0  0  0  0
 12 15  1  0  0  0  0
 12 36  1  0  0  0  0
 12 37  1  0  0  0  0
 13 16  1  0  0  0  0
 13 38  1  0  0  0  0
 13 39  1  0  0  0  0
 14 40  1  0  0  0  0
 15 41  1  0  0  0  0
 15 42  1  0  0  0  0
 16 43  1  0  0  0  0
 16 44  1  0  0  0  0
 17 24  2  0  0  0  0
 17 45  1  0  0  0  0
 18 20  1  0  0  0  0
 18 21  2  0  0  0  0
 19 25  1  0  0  0  0
 20 24  1  0  0  0  0
 20 46  1  0  0  0  0
 22 47  1  0  0  0  0
 22 48  1  0  0  0  0
 23 49  1  0  0  0  0
M  END
> <compound_name>
JOR-UNI-2fc98d0b-12

> <provenance>
{"isomeric_smiles": "c1cc(cc(c1)Cl)N(CCC2CCCCC2)C(=O)Nc3cccnc3", "inchi": "InChI=1S/C20H24ClN3O/c21-17-8-4-10-19(14-17)24(13-11-16-6-2-1-3-7-16)20(25)23-18-9-5-12-22-15-18/h4-5,8-10,12,14-16H,1-3,6-7,11,13H2,(H,23,25)", "inchi_key": "GCADPMUYKNHGSM-UHFFFAOYSA-N", "fixed_inchi": "InChI=1/C20H24ClN3O/c21-17-8-4-10-19(14-17)24(13-11-16-6-2-1-3-7-16)20(25)23-18-9-5-12-22-15-18/h4-5,8-10,12,14-16H,1-3,6-7,11,13H2,(H,23,25)/f/h23H", "fixed_inchikey": "GCADPMUYKNHGSM-MPIMZMORNA-N"}

> <data_format>
sdf

$$$$
