LIG(A-306)
  -OEChem-06042511393D

 41 44  0     1  0  0  0  0  0999 V2000
    8.5447    0.8708   21.1184 O   0  0  0  0  0  0  0  0  0  0  0  0
    8.1025   -0.2467   21.3374 C   0  0  0  0  0  0  0  0  0  0  0  0
    8.9202   -1.3004   22.0670 C   0  0  1  0  0  0  0  0  0  0  0  0
   10.2684   -0.7976   22.5561 C   0  0  0  0  0  0  0  0  0  0  0  0
   10.3756    0.2253   23.4888 C   0  0  0  0  0  0  0  0  0  0  0  0
   11.6126    0.7130   23.8630 C   0  0  0  0  0  0  0  0  0  0  0  0
   11.4281   -1.3568   22.0356 C   0  0  0  0  0  0  0  0  0  0  0  0
   12.6661   -0.8831   22.4208 C   0  0  0  0  0  0  0  0  0  0  0  0
   14.0885   -1.6516   21.7941 Cl  0  0  0  0  0  0  0  0  0  0  0  0
   12.7613    0.1668   23.3195 C   0  0  0  0  0  0  0  0  0  0  0  0
   14.2934    0.8494   23.7361 Cl  0  0  0  0  0  0  0  0  0  0  0  0
    6.8605   -0.6264   20.9120 N   0  0  0  0  0  0  0  0  0  0  0  0
    6.0291   -1.6432   21.5886 C   0  0  0  0  0  0  0  0  0  0  0  0
    6.8331   -2.6418   22.4222 C   0  0  0  0  0  0  0  0  0  0  0  0
    8.0367   -1.9938   23.1043 C   0  0  0  0  0  0  0  0  0  0  0  0
    6.2020    0.1049   19.8734 C   0  0  0  0  0  0  0  0  0  0  0  0
    5.1319    1.0247   20.0964 C   0  0  0  0  0  0  0  0  0  0  0  0
    4.6124    1.3513   21.3780 C   0  0  0  0  0  0  0  0  0  0  0  0
    3.5832    2.2391   21.5159 C   0  0  0  0  0  0  0  0  0  0  0  0
    3.0175    2.8412   20.4043 C   0  0  0  0  0  0  0  0  0  0  0  0
    3.4831    2.5666   19.1507 C   0  0  0  0  0  0  0  0  0  0  0  0
    4.5563    1.6608   18.9618 C   0  0  0  0  0  0  0  0  0  0  0  0
    5.1018    1.3612   17.6881 C   0  0  0  0  0  0  0  0  0  0  0  0
    6.1090    0.5254   17.4872 N   0  0  0  0  0  0  0  0  0  0  0  0
    6.6256   -0.0818   18.5629 C   0  0  0  0  0  0  0  0  0  0  0  0
    9.1478   -2.0699   21.3146 H   0  0  0  0  0  0  0  0  0  0  0  0
    9.4817    0.6444   23.9267 H   0  0  0  0  0  0  0  0  0  0  0  0
   11.6826    1.5190   24.5785 H   0  0  0  0  0  0  0  0  0  0  0  0
   11.3610   -2.1673   21.3249 H   0  0  0  0  0  0  0  0  0  0  0  0
    5.3217   -1.1263   22.2536 H   0  0  0  0  0  0  0  0  0  0  0  0
    5.4711   -2.2010   20.8221 H   0  0  0  0  0  0  0  0  0  0  0  0
    6.1757   -3.0673   23.1947 H   0  0  0  0  0  0  0  0  0  0  0  0
    7.1913   -3.4456   21.7622 H   0  0  0  0  0  0  0  0  0  0  0  0
    7.6840   -1.2517   23.8358 H   0  0  0  0  0  0  0  0  0  0  0  0
    8.6223   -2.7684   23.6211 H   0  0  0  0  0  0  0  0  0  0  0  0
    5.0381    0.8904   22.2571 H   0  0  0  0  0  0  0  0  0  0  0  0
    3.2072    2.4734   22.5009 H   0  0  0  0  0  0  0  0  0  0  0  0
    2.1996    3.5351   20.5305 H   0  0  0  0  0  0  0  0  0  0  0  0
    3.0292    3.0443   18.2951 H   0  0  0  0  0  0  0  0  0  0  0  0
    4.6679    1.8459   16.8260 H   0  0  0  0  0  0  0  0  0  0  0  0
    7.4385   -0.7736   18.3986 H   0  0  0  0  0  0  0  0  0  0  0  0
  1  2  2  0  0  0  0
  2  3  1  0  0  0  0
  2 12  1  0  0  0  0
  3  4  1  0  0  0  0
  3 15  1  0  0  0  0
  3 26  1  0  0  0  0
  4  5  2  0  0  0  0
  4  7  1  0  0  0  0
  5  6  1  0  0  0  0
  5 27  1  0  0  0  0
  6 10  2  0  0  0  0
  6 28  1  0  0  0  0
  7  8  2  0  0  0  0
  7 29  1  0  0  0  0
  8  9  1  0  0  0  0
  8 10  1  0  0  0  0
 10 11  1  0  0  0  0
 12 13  1  0  0  0  0
 12 16  1  0  0  0  0
 13 14  1  0  0  0  0
 13 30  1  0  0  0  0
 13 31  1  0  0  0  0
 14 15  1  0  0  0  0
 14 32  1  0  0  0  0
 14 33  1  0  0  0  0
 15 34  1  0  0  0  0
 15 35  1  0  0  0  0
 16 17  2  0  0  0  0
 16 25  1  0  0  0  0
 17 18  1  0  0  0  0
 17 22  1  0  0  0  0
 18 19  2  0  0  0  0
 18 36  1  0  0  0  0
 19 20  1  0  0  0  0
 19 37  1  0  0  0  0
 20 21  2  0  0  0  0
 20 38  1  0  0  0  0
 21 22  1  0  0  0  0
 21 39  1  0  0  0  0
 22 23  2  0  0  0  0
 23 24  1  0  0  0  0
 23 40  1  0  0  0  0
 24 25  2  0  0  0  0
 25 41  1  0  0  0  0
M  END
> <compound_name>
ALP-UNI-3735e77e-1

> <provenance>
{"isomeric_smiles": "c1ccc2c(c1)cncc2N3CCC[C@@H](C3=O)c4ccc(c(c4)Cl)Cl", "inchi": "InChI=1S/C20H16Cl2N2O/c21-17-8-7-13(10-18(17)22)16-6-3-9-24(20(16)25)19-12-23-11-14-4-1-2-5-15(14)19/h1-2,4-5,7-8,10-12,16H,3,6,9H2/t16-/m1/s1", "inchi_key": "CJNMPNBDTPWBLB-MRXNPFEDSA-N", "fixed_inchi": "InChI=1/C20H16Cl2N2O/c21-17-8-7-13(10-18(17)22)16-6-3-9-24(20(16)25)19-12-23-11-14-4-1-2-5-15(14)19/h1-2,4-5,7-8,10-12,16H,3,6,9H2/t16-/m1/s1", "fixed_inchikey": "CJNMPNBDTPWBLB-MRXNPFEDNA-N"}

> <data_format>
sdf

$$$$
