LIG(A-305)
  -OEChem-06042511323D

 31 32  0     0  0  0  0  0  0999 V2000
   10.5134    0.7525   22.9589 C   0  0  0  0  0  0  0  0  0  0  0  0
    6.3517    0.5576   17.4018 N   0  0  0  0  0  0  0  0  0  0  0  0
   12.6515   -0.9375   22.5890 C   0  0  0  0  0  0  0  0  0  0  0  0
    5.2076    1.0025   19.9167 C   0  0  0  0  0  0  0  0  0  0  0  0
   12.8634    0.2955   23.1720 C   0  0  0  0  0  0  0  0  0  0  0  0
    4.5985    1.3075   21.2617 C   0  0  0  0  0  0  0  0  0  0  0  0
   10.3325   -0.4665   22.3139 C   0  0  0  0  0  0  0  0  0  0  0  0
    4.7626    1.6835   18.7887 C   0  0  0  0  0  0  0  0  0  0  0  0
    9.0735   -0.8255   21.7928 N   0  0  0  0  0  0  0  0  0  0  0  0
    6.8275   -0.6685   20.9387 C   0  0  0  0  0  0  0  0  0  0  0  0
    8.3735    1.1665   20.9498 O   0  0  0  0  0  0  0  0  0  0  0  0
    6.2466    0.0715   19.7567 C   0  0  0  0  0  0  0  0  0  0  0  0
    8.1655   -0.0135   21.2168 C   0  0  0  0  0  0  0  0  0  0  0  0
    6.7606   -0.1095   18.4848 C   0  0  0  0  0  0  0  0  0  0  0  0
   11.7804    1.1345   23.3700 C   0  0  0  0  0  0  0  0  0  0  0  0
   11.4085   -1.3275   22.1359 C   0  0  0  0  0  0  0  0  0  0  0  0
    5.3646    1.4445   17.5697 C   0  0  0  0  0  0  0  0  0  0  0  0
   13.9485   -2.0924   22.5690 Cl  0  0  0  0  0  0  0  0  0  0  0  0
    9.6680    1.4000   23.1390 H   0  0  0  0  0  0  0  0  0  0  0  0
   13.8563    0.6001   23.4684 H   0  0  0  0  0  0  0  0  0  0  0  0
    3.8294    2.0858   21.1485 H   0  0  0  0  0  0  0  0  0  0  0  0
    4.1396    0.3956   21.6715 H   0  0  0  0  0  0  0  0  0  0  0  0
    5.3821    1.6633   21.9467 H   0  0  0  0  0  0  0  0  0  0  0  0
    3.9525    2.3936   18.8658 H   0  0  0  0  0  0  0  0  0  0  0  0
    8.8259   -1.7922   21.8579 H   0  0  0  0  0  0  0  0  0  0  0  0
    6.1659   -0.5748   21.8125 H   0  0  0  0  0  0  0  0  0  0  0  0
    6.9649   -1.7324   20.6951 H   0  0  0  0  0  0  0  0  0  0  0  0
    7.5461   -0.8398   18.3589 H   0  0  0  0  0  0  0  0  0  0  0  0
   11.9237    2.0925   23.8476 H   0  0  0  0  0  0  0  0  0  0  0  0
   11.2741   -2.2837   21.6521 H   0  0  0  0  0  0  0  0  0  0  0  0
    5.0221    2.0009   16.7097 H   0  0  0  0  0  0  0  0  0  0  0  0
  1  7  1  0  0  0  0
  1 15  2  0  0  0  0
  1 19  1  0  0  0  0
  2 14  1  0  0  0  0
  2 17  2  0  0  0  0
  3  5  2  0  0  0  0
  3 16  1  0  0  0  0
  3 18  1  0  0  0  0
  4  6  1  0  0  0  0
  4  8  2  0  0  0  0
  4 12  1  0  0  0  0
  5 15  1  0  0  0  0
  5 20  1  0  0  0  0
  6 21  1  0  0  0  0
  6 22  1  0  0  0  0
  6 23  1  0  0  0  0
  7  9  1  0  0  0  0
  7 16  2  0  0  0  0
  8 17  1  0  0  0  0
  8 24  1  0  0  0  0
  9 13  1  0  0  0  0
  9 25  1  0  0  0  0
 10 12  1  0  0  0  0
 10 13  1  0  0  0  0
 10 26  1  0  0  0  0
 10 27  1  0  0  0  0
 11 13  2  0  0  0  0
 12 14  2  0  0  0  0
 14 28  1  0  0  0  0
 15 29  1  0  0  0  0
 16 30  1  0  0  0  0
 17 31  1  0  0  0  0
M  END
> <compound_name>
EDJ-MED-49816e9b-1

> <provenance>
{"isomeric_smiles": "Cc1ccncc1CC(=O)Nc2cccc(c2)Cl", "inchi": "InChI=1S/C14H13ClN2O/c1-10-5-6-16-9-11(10)7-14(18)17-13-4-2-3-12(15)8-13/h2-6,8-9H,7H2,1H3,(H,17,18)", "inchi_key": "VKQLRXLEZSWDDW-UHFFFAOYSA-N", "fixed_inchi": "InChI=1/C14H13ClN2O/c1-10-5-6-16-9-11(10)7-14(18)17-13-4-2-3-12(15)8-13/h2-6,8-9H,7H2,1H3,(H,17,18)/f/h17H", "fixed_inchikey": "VKQLRXLEZSWDDW-HCKMINDGNA-N"}

> <data_format>
sdf

$$$$
