LIG(A-305)
  -OEChem-06042511353D

 36 37  0     0  0  0  0  0  0999 V2000
   14.4464   -0.2992   22.8194 F   0  0  0  0  0  0  0  0  0  0  0  0
   13.5512   -1.2751   22.8354 C   0  0  0  0  0  0  0  0  0  0  0  0
   14.0571   -2.2992   23.5243 F   0  0  0  0  0  0  0  0  0  0  0  0
   13.4519   -1.6709   21.5634 F   0  0  0  0  0  0  0  0  0  0  0  0
   12.2363   -0.8108   23.4007 C   0  0  0  0  0  0  0  0  0  0  0  0
   12.1706    0.0681   24.4717 C   0  0  0  0  0  0  0  0  0  0  0  0
   10.9218    0.4403   24.9369 C   0  0  0  0  0  0  0  0  0  0  0  0
    9.7866   -0.0655   24.3220 C   0  0  0  0  0  0  0  0  0  0  0  0
   11.1502   -1.3136   22.7938 N   0  0  0  0  0  0  0  0  0  0  0  0
    9.9433   -0.9394   23.2499 C   0  0  0  0  0  0  0  0  0  0  0  0
    8.7621   -1.4781   22.4810 C   0  0  0  0  0  0  0  0  0  0  0  0
    8.3461   -0.5120   21.3912 C   0  0  0  0  0  0  0  0  0  0  0  0
    9.0083    0.4889   21.1262 O   0  0  0  0  0  0  0  0  0  0  0  0
    7.1890   -0.8267   20.7783 N   0  0  0  0  0  0  0  0  0  0  0  0
    6.5810   -0.0865   19.7414 C   0  0  0  0  0  0  0  0  0  0  0  0
    5.4382    0.6807   20.0106 C   0  0  0  0  0  0  0  0  0  0  0  0
    4.8854    0.8327   21.4107 C   0  0  0  0  0  0  0  0  0  0  0  0
    4.5327    2.2577   21.7819 C   0  0  0  0  0  0  0  0  0  0  0  0
    7.0848   -0.0995   18.4434 C   0  0  0  0  0  0  0  0  0  0  0  0
    6.5248    0.5717   17.4335 N   0  0  0  0  0  0  0  0  0  0  0  0
    5.4200    1.2789   17.6997 C   0  0  0  0  0  0  0  0  0  0  0  0
    4.8502    1.3639   18.9518 C   0  0  0  0  0  0  0  0  0  0  0  0
   13.0701    0.4516   24.9302 H   0  0  0  0  0  0  0  0  0  0  0  0
   10.8319    1.1191   25.7721 H   0  0  0  0  0  0  0  0  0  0  0  0
    8.8019    0.2127   24.6675 H   0  0  0  0  0  0  0  0  0  0  0  0
    9.0370   -2.4405   22.0246 H   0  0  0  0  0  0  0  0  0  0  0  0
    7.9194   -1.6274   23.1720 H   0  0  0  0  0  0  0  0  0  0  0  0
    6.7205   -1.6556   21.0839 H   0  0  0  0  0  0  0  0  0  0  0  0
    3.9763    0.2189   21.4923 H   0  0  0  0  0  0  0  0  0  0  0  0
    5.6401    0.4665   22.1223 H   0  0  0  0  0  0  0  0  0  0  0  0
    4.1400    2.2831   22.8090 H   0  0  0  0  0  0  0  0  0  0  0  0
    5.4329    2.8867   21.7180 H   0  0  0  0  0  0  0  0  0  0  0  0
    3.7691    2.6389   21.0879 H   0  0  0  0  0  0  0  0  0  0  0  0
    7.9725   -0.6812   18.2432 H   0  0  0  0  0  0  0  0  0  0  0  0
    4.9486    1.8128   16.8878 H   0  0  0  0  0  0  0  0  0  0  0  0
    3.9588    1.9532   19.1084 H   0  0  0  0  0  0  0  0  0  0  0  0
  1  2  1  0  0  0  0
  2  3  1  0  0  0  0
  2  4  1  0  0  0  0
  2  5  1  0  0  0  0
  5  6  2  0  0  0  0
  5  9  1  0  0  0  0
  6  7  1  0  0  0  0
  6 23  1  0  0  0  0
  7  8  2  0  0  0  0
  7 24  1  0  0  0  0
  8 10  1  0  0  0  0
  8 25  1  0  0  0  0
  9 10  2  0  0  0  0
 10 11  1  0  0  0  0
 11 12  1  0  0  0  0
 11 26  1  0  0  0  0
 11 27  1  0  0  0  0
 12 13  2  0  0  0  0
 12 14  1  0  0  0  0
 14 15  1  0  0  0  0
 14 28  1  0  0  0  0
 15 16  2  0  0  0  0
 15 19  1  0  0  0  0
 16 17  1  0  0  0  0
 16 22  1  0  0  0  0
 17 18  1  0  0  0  0
 17 29  1  0  0  0  0
 17 30  1  0  0  0  0
 18 31  1  0  0  0  0
 18 32  1  0  0  0  0
 18 33  1  0  0  0  0
 19 20  2  0  0  0  0
 19 34  1  0  0  0  0
 20 21  1  0  0  0  0
 21 22  2  0  0  0  0
 21 35  1  0  0  0  0
 22 36  1  0  0  0  0
M  END
> <compound_name>
JAG-UCB-a3ef7265-23

> <provenance>
{"isomeric_smiles": "CCc1ccncc1NC(=O)Cc2cccc(n2)C(F)(F)F", "inchi": "InChI=1S/C15H14F3N3O/c1-2-10-6-7-19-9-12(10)21-14(22)8-11-4-3-5-13(20-11)15(16,17)18/h3-7,9H,2,8H2,1H3,(H,21,22)", "inchi_key": "WFXWGHHTPVLTRG-UHFFFAOYSA-N", "fixed_inchi": "InChI=1/C15H14F3N3O/c1-2-10-6-7-19-9-12(10)21-14(22)8-11-4-3-5-13(20-11)15(16,17)18/h3-7,9H,2,8H2,1H3,(H,21,22)/f/h21H", "fixed_inchikey": "WFXWGHHTPVLTRG-PKSOQXRJNA-N"}

> <data_format>
sdf

$$$$
