LIG(A-305)
  -OEChem-06042511313D

 42 45  0     1  0  0  0  0  0999 V2000
    9.2186    1.5099   21.2977 O   0  0  0  0  0  0  0  0  0  0  0  0
    8.8856    0.4218   21.7606 C   0  0  0  0  0  0  0  0  0  0  0  0
    9.5375   -0.1422   23.0217 C   0  0  1  0  0  0  0  0  0  0  0  0
   11.0465   -0.1110   22.8910 C   0  0  0  0  0  0  0  0  0  0  0  0
   11.7228   -0.9808   22.0311 C   0  0  0  0  0  0  0  0  0  0  0  0
   13.0918   -0.8757   21.8874 C   0  0  0  0  0  0  0  0  0  0  0  0
   13.8981   -1.8795   20.7125 Cl  0  0  0  0  0  0  0  0  0  0  0  0
   13.8225    0.0524   22.5936 C   0  0  0  0  0  0  0  0  0  0  0  0
   13.1702    0.9063   23.4625 C   0  0  0  0  0  0  0  0  0  0  0  0
   11.7972    0.8231   23.6062 C   0  0  0  0  0  0  0  0  0  0  0  0
   11.2329    1.7110   24.4921 O   0  0  0  0  0  0  0  0  0  0  0  0
    9.8129    1.9008   24.4269 C   0  0  0  0  0  0  0  0  0  0  0  0
    9.0791    0.5817   24.3117 C   0  0  1  0  0  0  0  0  0  0  0  0
    7.5701    0.8035   24.3394 C   0  0  0  0  0  0  0  0  0  0  0  0
    7.9428   -0.3663   21.2074 N   0  0  0  0  0  0  0  0  0  0  0  0
    7.0840   -0.0504   20.1413 C   0  0  0  0  0  0  0  0  0  0  0  0
    5.8179    0.5474   20.4401 C   0  0  0  0  0  0  0  0  0  0  0  0
    5.2956    0.6753   21.7530 C   0  0  0  0  0  0  0  0  0  0  0  0
    4.1065    1.3111   21.9767 C   0  0  0  0  0  0  0  0  0  0  0  0
    3.3856    1.8541   20.9216 C   0  0  0  0  0  0  0  0  0  0  0  0
    3.8419    1.7482   19.6387 C   0  0  0  0  0  0  0  0  0  0  0  0
    5.0600    1.0804   19.3609 C   0  0  0  0  0  0  0  0  0  0  0  0
    5.5893    0.9415   18.0550 C   0  0  0  0  0  0  0  0  0  0  0  0
    6.7524    0.3627   17.7762 N   0  0  0  0  0  0  0  0  0  0  0  0
    7.4673   -0.1153   18.8023 C   0  0  0  0  0  0  0  0  0  0  0  0
    9.2312   -1.1949   23.1109 H   0  0  0  0  0  0  0  0  0  0  0  0
   11.1763   -1.7326   21.4811 H   0  0  0  0  0  0  0  0  0  0  0  0
   14.8937    0.1127   22.4701 H   0  0  0  0  0  0  0  0  0  0  0  0
   13.7308    1.6362   24.0275 H   0  0  0  0  0  0  0  0  0  0  0  0
    9.4794    2.4163   25.3395 H   0  0  0  0  0  0  0  0  0  0  0  0
    9.5754    2.5193   23.5488 H   0  0  0  0  0  0  0  0  0  0  0  0
    9.3530   -0.0468   25.1718 H   0  0  0  0  0  0  0  0  0  0  0  0
    7.0550   -0.1648   24.2548 H   0  0  0  0  0  0  0  0  0  0  0  0
    7.2880    1.2871   25.2863 H   0  0  0  0  0  0  0  0  0  0  0  0
    7.2789    1.4485   23.4973 H   0  0  0  0  0  0  0  0  0  0  0  0
    7.8431   -1.2803   21.6006 H   0  0  0  0  0  0  0  0  0  0  0  0
    5.8452    0.2647   22.5870 H   0  0  0  0  0  0  0  0  0  0  0  0
    3.7242    1.3920   22.9836 H   0  0  0  0  0  0  0  0  0  0  0  0
    2.4546    2.3654   21.1174 H   0  0  0  0  0  0  0  0  0  0  0  0
    3.2695    2.1771   18.8295 H   0  0  0  0  0  0  0  0  0  0  0  0
    5.0096    1.3317   17.2315 H   0  0  0  0  0  0  0  0  0  0  0  0
    8.4122   -0.5867   18.5758 H   0  0  0  0  0  0  0  0  0  0  0  0
  1  2  2  0  0  0  0
  2  3  1  0  0  0  0
  2 15  1  0  0  0  0
  3  4  1  0  0  0  0
  3 13  1  0  0  0  0
  3 26  1  0  0  0  0
  4  5  2  0  0  0  0
  4 10  1  0  0  0  0
  5  6  1  0  0  0  0
  5 27  1  0  0  0  0
  6  7  1  0  0  0  0
  6  8  2  0  0  0  0
  8  9  1  0  0  0  0
  8 28  1  0  0  0  0
  9 10  2  0  0  0  0
  9 29  1  0  0  0  0
 10 11  1  0  0  0  0
 11 12  1  0  0  0  0
 12 13  1  0  0  0  0
 12 30  1  0  0  0  0
 12 31  1  0  0  0  0
 13 14  1  0  0  0  0
 13 32  1  0  0  0  0
 14 33  1  0  0  0  0
 14 34  1  0  0  0  0
 14 35  1  0  0  0  0
 15 16  1  0  0  0  0
 15 36  1  0  0  0  0
 16 17  2  0  0  0  0
 16 25  1  0  0  0  0
 17 18  1  0  0  0  0
 17 22  1  0  0  0  0
 18 19  2  0  0  0  0
 18 37  1  0  0  0  0
 19 20  1  0  0  0  0
 19 38  1  0  0  0  0
 20 21  2  0  0  0  0
 20 39  1  0  0  0  0
 21 22  1  0  0  0  0
 21 40  1  0  0  0  0
 22 23  2  0  0  0  0
 23 24  1  0  0  0  0
 23 41  1  0  0  0  0
 24 25  2  0  0  0  0
 25 42  1  0  0  0  0
M  END
> <compound_name>
MAT-POS-8a69d52e-7

> <provenance>
{"isomeric_smiles": "C[C@@H]1COc2ccc(cc2[C@@H]1C(=O)Nc3cncc4c3cccc4)Cl", "inchi": "InChI=1S/C20H17ClN2O2/c1-12-11-25-18-7-6-14(21)8-16(18)19(12)20(24)23-17-10-22-9-13-4-2-3-5-15(13)17/h2-10,12,19H,11H2,1H3,(H,23,24)/t12-,19-/m1/s1", "inchi_key": "SGXOKACJPFKOBB-CWTRNNRKSA-N", "fixed_inchi": "InChI=1/C20H17ClN2O2/c1-12-11-25-18-7-6-14(21)8-16(18)19(12)20(24)23-17-10-22-9-13-4-2-3-5-15(13)17/h2-10,12,19H,11H2,1H3,(H,23,24)/t12-,19-/m1/s1/f/h23H", "fixed_inchikey": "SGXOKACJPFKOBB-NVGPQIIRNA-N"}

> <data_format>
sdf

$$$$
