LIG(A-305)
  -OEChem-06042511333D

 29 30  0     0  0  0  0  0  0999 V2000
   14.4563   -1.8896   20.5251 N   0  0  0  0  0  0  0  0  0  0  0  0
   13.7203   -1.4486   21.2791 C   0  0  0  0  0  0  0  0  0  0  0  0
   12.8233   -0.8857   22.2562 C   0  0  0  0  0  0  0  0  0  0  0  0
   13.3254   -0.1477   23.3252 C   0  0  0  0  0  0  0  0  0  0  0  0
   12.4514    0.4343   24.2282 C   0  0  0  0  0  0  0  0  0  0  0  0
   11.0834    0.2783   24.0683 C   0  0  0  0  0  0  0  0  0  0  0  0
   11.4483   -1.0477   22.1032 C   0  0  0  0  0  0  0  0  0  0  0  0
   10.5684   -0.4597   23.0083 C   0  0  0  0  0  0  0  0  0  0  0  0
    9.0774   -0.6017   22.8164 C   0  0  0  0  0  0  0  0  0  0  0  0
    8.5923    0.1044   21.5654 C   0  0  0  0  0  0  0  0  0  0  0  0
    9.2003    1.0534   21.0704 O   0  0  0  0  0  0  0  0  0  0  0  0
    7.4393   -0.3866   21.0644 N   0  0  0  0  0  0  0  0  0  0  0  0
    6.7122    0.1244   19.9715 C   0  0  0  0  0  0  0  0  0  0  0  0
    7.1932   -0.0006   18.6685 C   0  0  0  0  0  0  0  0  0  0  0  0
    6.6061    0.5654   17.6075 N   0  0  0  0  0  0  0  0  0  0  0  0
    5.4911    1.2734   17.8246 C   0  0  0  0  0  0  0  0  0  0  0  0
    4.9262    1.4454   19.0776 C   0  0  0  0  0  0  0  0  0  0  0  0
    5.5473    0.8574   20.1655 C   0  0  0  0  0  0  0  0  0  0  0  0
   14.3917   -0.0297   23.4494 H   0  0  0  0  0  0  0  0  0  0  0  0
   12.8359    1.0099   25.0573 H   0  0  0  0  0  0  0  0  0  0  0  0
   10.4086    0.7361   24.7764 H   0  0  0  0  0  0  0  0  0  0  0  0
   11.0634   -1.6312   21.2800 H   0  0  0  0  0  0  0  0  0  0  0  0
    8.8303   -1.6707   22.7384 H   0  0  0  0  0  0  0  0  0  0  0  0
    8.5650   -0.1695   23.6885 H   0  0  0  0  0  0  0  0  0  0  0  0
    7.0626   -1.1959   21.5152 H   0  0  0  0  0  0  0  0  0  0  0  0
    8.0868   -0.5852   18.5071 H   0  0  0  0  0  0  0  0  0  0  0  0
    5.0060    1.7353   16.9774 H   0  0  0  0  0  0  0  0  0  0  0  0
    4.0230    2.0243   19.2024 H   0  0  0  0  0  0  0  0  0  0  0  0
    5.1307    0.9670   21.1560 H   0  0  0  0  0  0  0  0  0  0  0  0
  1  2  3  0  0  0  0
  2  3  1  0  0  0  0
  3  4  2  0  0  0  0
  3  7  1  0  0  0  0
  4  5  1  0  0  0  0
  4 19  1  0  0  0  0
  5  6  2  0  0  0  0
  5 20  1  0  0  0  0
  6  8  1  0  0  0  0
  6 21  1  0  0  0  0
  7  8  2  0  0  0  0
  7 22  1  0  0  0  0
  8  9  1  0  0  0  0
  9 10  1  0  0  0  0
  9 23  1  0  0  0  0
  9 24  1  0  0  0  0
 10 11  2  0  0  0  0
 10 12  1  0  0  0  0
 12 13  1  0  0  0  0
 12 25  1  0  0  0  0
 13 14  2  0  0  0  0
 13 18  1  0  0  0  0
 14 15  1  0  0  0  0
 14 26  1  0  0  0  0
 15 16  2  0  0  0  0
 16 17  1  0  0  0  0
 16 27  1  0  0  0  0
 17 18  2  0  0  0  0
 17 28  1  0  0  0  0
 18 29  1  0  0  0  0
M  END
> <compound_name>
ANN-UNI-26382800-5

> <provenance>
{"isomeric_smiles": "c1cc(cc(c1)C#N)CC(=O)Nc2cccnc2", "inchi": "InChI=1S/C14H11N3O/c15-9-12-4-1-3-11(7-12)8-14(18)17-13-5-2-6-16-10-13/h1-7,10H,8H2,(H,17,18)", "inchi_key": "DSTLUTUEFNLBST-UHFFFAOYSA-N", "fixed_inchi": "InChI=1/C14H11N3O/c15-9-12-4-1-3-11(7-12)8-14(18)17-13-5-2-6-16-10-13/h1-7,10H,8H2,(H,17,18)/f/h17H", "fixed_inchikey": "DSTLUTUEFNLBST-HCKMINDGNA-N"}

> <data_format>
sdf

$$$$
