LIG(A-306)
  -OEChem-06042511423D

 57 60  0     1  0  0  0  0  0999 V2000
   14.0934   -1.5353   21.2485 Cl  0  0  0  0  0  0  0  0  0  0  0  0
   12.9254   -0.7439   22.2718 C   0  0  0  0  0  0  0  0  0  0  0  0
   11.6055   -1.1517   22.2231 C   0  0  0  0  0  0  0  0  0  0  0  0
   13.3279    0.3002   23.0719 C   0  0  0  0  0  0  0  0  0  0  0  0
   12.3886    0.9474   23.8534 C   0  0  0  0  0  0  0  0  0  0  0  0
   11.0438    0.5815   23.8150 C   0  0  0  0  0  0  0  0  0  0  0  0
   10.0427    1.3325   24.6680 C   0  0  0  0  0  0  0  0  0  0  0  0
    8.6560    1.1107   24.2293 N   0  3  2  0  0  0  0  0  0  0  0  0
    7.6568    1.7938   25.0440 C   0  0  0  0  0  0  0  0  0  0  0  0
    7.1565    3.1000   24.4447 C   0  0  0  0  0  0  0  0  0  0  0  0
    6.3973    3.8234   25.0826 O   0  0  0  0  0  0  0  0  0  0  0  0
    7.5618    3.4022   23.2161 N   0  0  0  0  0  0  0  0  0  0  0  0
    7.0411    4.5431   22.4860 C   0  0  0  0  0  0  0  0  0  0  0  0
   10.6462   -0.4704   22.9738 C   0  0  0  0  0  0  0  0  0  0  0  0
    9.1705   -0.7913   22.8126 C   0  0  1  0  0  0  0  0  0  0  0  0
    8.3929   -0.3148   24.0372 C   0  0  0  0  0  0  0  0  0  0  0  0
    8.6597   -0.0440   21.5765 C   0  0  0  0  0  0  0  0  0  0  0  0
    9.1689    1.0088   21.1936 O   0  0  0  0  0  0  0  0  0  0  0  0
    7.5604   -0.5907   20.9980 N   0  0  0  0  0  0  0  0  0  0  0  0
    6.8261   -0.1055   19.8857 C   0  0  0  0  0  0  0  0  0  0  0  0
    5.6860    0.7228   20.1291 C   0  0  0  0  0  0  0  0  0  0  0  0
    5.0049    1.2800   19.0061 C   0  0  0  0  0  0  0  0  0  0  0  0
    5.4968    0.9664   17.7164 C   0  0  0  0  0  0  0  0  0  0  0  0
    6.5501    0.1912   17.4892 N   0  0  0  0  0  0  0  0  0  0  0  0
    7.1822   -0.3236   18.5535 C   0  0  0  0  0  0  0  0  0  0  0  0
    5.2231    1.0553   21.4260 C   0  0  0  0  0  0  0  0  0  0  0  0
    4.1610    1.8888   21.6054 C   0  0  0  0  0  0  0  0  0  0  0  0
    3.5008    2.4188   20.5043 C   0  0  0  0  0  0  0  0  0  0  0  0
    3.8998    2.1353   19.2267 C   0  0  0  0  0  0  0  0  0  0  0  0
    2.1042    3.4736   20.7560 S   0  0  0  0  0  0  0  0  0  0  0  0
    1.2331    2.8417   21.7060 O   0  0  0  0  0  0  0  0  0  0  0  0
    1.5666    3.8272   19.4729 O   0  0  0  0  0  0  0  0  0  0  0  0
    2.7796    4.9164   21.4900 C   0  0  0  0  0  0  0  0  0  0  0  0
   11.3185   -1.9920   21.6083 H   0  0  0  0  0  0  0  0  0  0  0  0
   14.3624    0.6100   23.0894 H   0  0  0  0  0  0  0  0  0  0  0  0
   12.7019    1.7499   24.5047 H   0  0  0  0  0  0  0  0  0  0  0  0
   10.1421    0.9943   25.7100 H   0  0  0  0  0  0  0  0  0  0  0  0
   10.2644    2.4083   24.6089 H   0  0  0  0  0  0  0  0  0  0  0  0
    8.5924    1.5225   23.3203 H   0  0  0  0  0  0  0  0  0  0  0  0
    6.7965    1.1205   25.1727 H   0  0  0  0  0  0  0  0  0  0  0  0
    8.1018    2.0120   26.0261 H   0  0  0  0  0  0  0  0  0  0  0  0
    8.2500    2.8231   22.7791 H   0  0  0  0  0  0  0  0  0  0  0  0
    7.5191    4.5951   21.4966 H   0  0  0  0  0  0  0  0  0  0  0  0
    5.9535    4.4338   22.3623 H   0  0  0  0  0  0  0  0  0  0  0  0
    7.2556    5.4654   23.0456 H   0  0  0  0  0  0  0  0  0  0  0  0
    9.0323   -1.8744   22.6785 H   0  0  0  0  0  0  0  0  0  0  0  0
    8.7199   -0.8752   24.9254 H   0  0  0  0  0  0  0  0  0  0  0  0
    7.3163   -0.4750   23.8784 H   0  0  0  0  0  0  0  0  0  0  0  0
    7.2269   -1.4404   21.4065 H   0  0  0  0  0  0  0  0  0  0  0  0
    4.9828    1.3842   16.8634 H   0  0  0  0  0  0  0  0  0  0  0  0
    8.0357   -0.9580   18.3651 H   0  0  0  0  0  0  0  0  0  0  0  0
    5.7220    0.6399   22.2890 H   0  0  0  0  0  0  0  0  0  0  0  0
    3.8321    2.1375   22.6037 H   0  0  0  0  0  0  0  0  0  0  0  0
    3.3719    2.5640   18.3877 H   0  0  0  0  0  0  0  0  0  0  0  0
    1.9746    5.6400   21.6858 H   0  0  0  0  0  0  0  0  0  0  0  0
    3.2713    4.6500   22.4373 H   0  0  0  0  0  0  0  0  0  0  0  0
    3.5169    5.3642   20.8075 H   0  0  0  0  0  0  0  0  0  0  0  0
  1  2  1  0  0  0  0
  2  3  2  0  0  0  0
  2  4  1  0  0  0  0
  3 14  1  0  0  0  0
  3 34  1  0  0  0  0
  4  5  2  0  0  0  0
  4 35  1  0  0  0  0
  5  6  1  0  0  0  0
  5 36  1  0  0  0  0
  6  7  1  0  0  0  0
  6 14  2  0  0  0  0
  7  8  1  0  0  0  0
  7 37  1  0  0  0  0
  7 38  1  0  0  0  0
  8  9  1  0  0  0  0
  8 16  1  0  0  0  0
  8 39  1  0  0  0  0
  9 10  1  0  0  0  0
  9 40  1  0  0  0  0
  9 41  1  0  0  0  0
 10 11  2  0  0  0  0
 10 12  1  0  0  0  0
 12 13  1  0  0  0  0
 12 42  1  0  0  0  0
 13 43  1  0  0  0  0
 13 44  1  0  0  0  0
 13 45  1  0  0  0  0
 14 15  1  0  0  0  0
 15 16  1  0  0  0  0
 15 17  1  0  0  0  0
 15 46  1  0  0  0  0
 16 47  1  0  0  0  0
 16 48  1  0  0  0  0
 17 18  2  0  0  0  0
 17 19  1  0  0  0  0
 19 20  1  0  0  0  0
 19 49  1  0  0  0  0
 20 21  2  0  0  0  0
 20 25  1  0  0  0  0
 21 22  1  0  0  0  0
 21 26  1  0  0  0  0
 22 23  2  0  0  0  0
 22 29  1  0  0  0  0
 23 24  1  0  0  0  0
 23 50  1  0  0  0  0
 24 25  2  0  0  0  0
 25 51  1  0  0  0  0
 26 27  2  0  0  0  0
 26 52  1  0  0  0  0
 27 28  1  0  0  0  0
 27 53  1  0  0  0  0
 28 29  2  0  0  0  0
 28 30  1  0  0  0  0
 29 54  1  0  0  0  0
 30 31  2  0  0  0  0
 30 32  2  0  0  0  0
 30 33  1  0  0  0  0
 33 55  1  0  0  0  0
 33 56  1  0  0  0  0
 33 57  1  0  0  0  0
M  CHG  1   8   1
M  END
> <compound_name>
EDJ-MED-7889e8da-5

> <provenance>
{"isomeric_smiles": "CNC(=O)C[N@H+]1Cc2ccc(cc2[C@@H](C1)C(=O)Nc3cncc4c3ccc(c4)S(=O)(=O)C)Cl", "inchi": "InChI=1S/C23H23ClN4O4S/c1-25-22(29)13-28-11-14-3-4-16(24)8-19(14)20(12-28)23(30)27-21-10-26-9-15-7-17(33(2,31)32)5-6-18(15)21/h3-10,20H,11-13H2,1-2H3,(H,25,29)(H,27,30)/p+1/t20-/m1/s1", "inchi_key": "MZECSNVKOADBBO-HXUWFJFHSA-O", "fixed_inchi": "InChI=1/C23H23ClN4O4S/c1-25-22(29)13-28-11-14-3-4-16(24)8-19(14)20(12-28)23(30)27-21-10-26-9-15-7-17(33(2,31)32)5-6-18(15)21/h3-10,20H,11-13H2,1-2H3,(H,25,29)(H,27,30)/p+1/t20-/m1/s1/fC23H24ClN4O4S/h25,27-28H/q+1", "fixed_inchikey": "MZECSNVKOADBBO-HFAPNLDWNA-O"}

> <data_format>
sdf

$$$$
