LIG(A-305)
  -OEChem-06042511353D

 49 50  0     1  0  0  0  0  0999 V2000
    7.3339   -1.7375   21.4552 N   0  0  0  0  0  0  0  0  0  0  0  0
    8.1239   -0.6966   20.7472 C   0  0  1  0  0  0  0  0  0  0  0  0
    7.1738   -0.0685   19.7443 C   0  0  0  0  0  0  0  0  0  0  0  0
    6.0079    0.5496   20.1594 C   0  0  0  0  0  0  0  0  0  0  0  0
    5.1749    1.1487   19.2365 C   0  0  0  0  0  0  0  0  0  0  0  0
    5.5448    1.1186   17.9124 C   0  0  0  0  0  0  0  0  0  0  0  0
    6.6697    0.5506   17.4783 N   0  0  0  0  0  0  0  0  0  0  0  0
    7.4517   -0.0335   18.3883 C   0  0  0  0  0  0  0  0  0  0  0  0
    8.8250    0.3723   21.6031 C   0  0  0  0  0  0  0  0  0  0  0  0
    9.6781    1.1073   21.1221 O   0  0  0  0  0  0  0  0  0  0  0  0
    8.3822    0.4554   22.8642 N   0  0  0  0  0  0  0  0  0  0  0  0
    8.9653    1.2993   23.9301 C   0  0  0  0  0  0  0  0  0  0  0  0
    8.1614    1.0813   25.2042 C   0  0  0  0  0  0  0  0  0  0  0  0
   10.4153    0.8862   24.1440 C   0  0  0  0  0  0  0  0  0  0  0  0
    8.8814    2.7583   23.4972 C   0  0  0  0  0  0  0  0  0  0  0  0
    7.9468   -2.7256   22.2932 C   0  0  0  0  0  0  0  0  0  0  0  0
    7.1668   -3.6785   22.9392 C   0  0  0  0  0  0  0  0  0  0  0  0
    7.7468   -4.5666   23.8302 C   0  0  0  0  0  0  0  0  0  0  0  0
    9.1069   -4.5147   24.1141 C   0  0  0  0  0  0  0  0  0  0  0  0
    9.8809   -3.5808   23.4400 C   0  0  0  0  0  0  0  0  0  0  0  0
    9.3179   -2.7037   22.5311 C   0  0  0  0  0  0  0  0  0  0  0  0
    9.7129   -5.3948   25.1860 C   0  0  0  0  0  0  0  0  0  0  0  0
    9.3021   -4.8738   26.5750 C   0  0  0  0  0  0  0  0  0  0  0  0
    8.0771   -5.5017   27.0751 C   0  0  0  0  0  0  0  0  0  0  0  0
    7.1340   -6.0286   27.4482 N   0  0  0  0  0  0  0  0  0  0  0  0
    6.3493   -1.5910   21.5508 H   0  0  0  0  0  0  0  0  0  0  0  0
    8.9083   -1.2107   20.1723 H   0  0  0  0  0  0  0  0  0  0  0  0
    5.7491    0.5633   21.2078 H   0  0  0  0  0  0  0  0  0  0  0  0
    4.2578    1.6278   19.5457 H   0  0  0  0  0  0  0  0  0  0  0  0
    4.8902    1.5790   17.1871 H   0  0  0  0  0  0  0  0  0  0  0  0
    8.3587   -0.5090   18.0454 H   0  0  0  0  0  0  0  0  0  0  0  0
    7.5878   -0.1018   23.1064 H   0  0  0  0  0  0  0  0  0  0  0  0
    8.5786    1.7006   26.0120 H   0  0  0  0  0  0  0  0  0  0  0  0
    7.1130    1.3647   25.0291 H   0  0  0  0  0  0  0  0  0  0  0  0
    8.2114    0.0209   25.4922 H   0  0  0  0  0  0  0  0  0  0  0  0
   10.8611    1.5069   24.9352 H   0  0  0  0  0  0  0  0  0  0  0  0
   10.4549   -0.1718   24.4423 H   0  0  0  0  0  0  0  0  0  0  0  0
   10.9776    1.0247   23.2088 H   0  0  0  0  0  0  0  0  0  0  0  0
    9.3118    3.3992   24.2807 H   0  0  0  0  0  0  0  0  0  0  0  0
    9.4432    2.8959   22.5615 H   0  0  0  0  0  0  0  0  0  0  0  0
    7.8284    3.0330   23.3363 H   0  0  0  0  0  0  0  0  0  0  0  0
    6.1054   -3.7264   22.7457 H   0  0  0  0  0  0  0  0  0  0  0  0
    7.1320   -5.3121   24.3125 H   0  0  0  0  0  0  0  0  0  0  0  0
   10.9434   -3.5381   23.6289 H   0  0  0  0  0  0  0  0  0  0  0  0
    9.9443   -1.9994   22.0040 H   0  0  0  0  0  0  0  0  0  0  0  0
    9.3517   -6.4262   25.0603 H   0  0  0  0  0  0  0  0  0  0  0  0
   10.8092   -5.3769   25.0978 H   0  0  0  0  0  0  0  0  0  0  0  0
   10.1177   -5.0801   27.2836 H   0  0  0  0  0  0  0  0  0  0  0  0
    9.1393   -3.7878   26.5095 H   0  0  0  0  0  0  0  0  0  0  0  0
  1  2  1  0  0  0  0
  1 16  1  0  0  0  0
  1 26  1  0  0  0  0
  2  3  1  0  0  0  0
  2  9  1  0  0  0  0
  2 27  1  0  0  0  0
  3  4  2  0  0  0  0
  3  8  1  0  0  0  0
  4  5  1  0  0  0  0
  4 28  1  0  0  0  0
  5  6  2  0  0  0  0
  5 29  1  0  0  0  0
  6  7  1  0  0  0  0
  6 30  1  0  0  0  0
  7  8  2  0  0  0  0
  8 31  1  0  0  0  0
  9 10  2  0  0  0  0
  9 11  1  0  0  0  0
 11 12  1  0  0  0  0
 11 32  1  0  0  0  0
 12 13  1  0  0  0  0
 12 14  1  0  0  0  0
 12 15  1  0  0  0  0
 13 33  1  0  0  0  0
 13 34  1  0  0  0  0
 13 35  1  0  0  0  0
 14 36  1  0  0  0  0
 14 37  1  0  0  0  0
 14 38  1  0  0  0  0
 15 39  1  0  0  0  0
 15 40  1  0  0  0  0
 15 41  1  0  0  0  0
 16 17  2  0  0  0  0
 16 21  1  0  0  0  0
 17 18  1  0  0  0  0
 17 42  1  0  0  0  0
 18 19  2  0  0  0  0
 18 43  1  0  0  0  0
 19 20  1  0  0  0  0
 19 22  1  0  0  0  0
 20 21  2  0  0  0  0
 20 44  1  0  0  0  0
 21 45  1  0  0  0  0
 22 23  1  0  0  0  0
 22 46  1  0  0  0  0
 22 47  1  0  0  0  0
 23 24  1  0  0  0  0
 23 48  1  0  0  0  0
 23 49  1  0  0  0  0
 24 25  3  0  0  0  0
M  END
> <compound_name>
MAT-POS-c0143b99-1

> <provenance>
{"isomeric_smiles": "CC(C)(C)NC(=O)[C@H](c1cccnc1)Nc2ccc(cc2)CCC#N", "inchi": "InChI=1S/C20H24N4O/c1-20(2,3)24-19(25)18(16-7-5-13-22-14-16)23-17-10-8-15(9-11-17)6-4-12-21/h5,7-11,13-14,18,23H,4,6H2,1-3H3,(H,24,25)/t18-/m0/s1", "inchi_key": "OUPPHPJHMDQSCE-SFHVURJKSA-N", "fixed_inchi": "InChI=1/C20H24N4O/c1-20(2,3)24-19(25)18(16-7-5-13-22-14-16)23-17-10-8-15(9-11-17)6-4-12-21/h5,7-11,13-14,18,23H,4,6H2,1-3H3,(H,24,25)/t18-/m0/s1/f/h24H", "fixed_inchikey": "OUPPHPJHMDQSCE-SDJGSLFKNA-N"}

> <data_format>
sdf

$$$$
