LIG(A-303)
  -OEChem-06042511413D

 37 39  0     0  0  0  0  0  0999 V2000
   14.2034   -1.4593   21.3266 Cl  0  0  0  0  0  0  0  0  0  0  0  0
   12.9315   -0.8215   22.3348 C   0  0  0  0  0  0  0  0  0  0  0  0
   13.2425    0.1155   23.3008 C   0  0  0  0  0  0  0  0  0  0  0  0
   12.2075    0.7064   24.0089 C   0  0  0  0  0  0  0  0  0  0  0  0
   10.8915    0.3563   23.7451 C   0  0  0  0  0  0  0  0  0  0  0  0
   11.6275   -1.1986   22.0819 C   0  0  0  0  0  0  0  0  0  0  0  0
   10.5865   -0.5907   22.7741 C   0  0  0  0  0  0  0  0  0  0  0  0
    9.1505   -0.9269   22.4343 C   0  0  0  0  0  0  0  0  0  0  0  0
    8.5583   -0.0469   21.3514 C   0  0  0  0  0  0  0  0  0  0  0  0
    9.2081    0.8462   20.8133 O   0  0  0  0  0  0  0  0  0  0  0  0
    7.2432   -0.2350   21.1315 N   0  0  0  0  0  0  0  0  0  0  0  0
    6.4781    0.0690   19.9957 C   0  0  0  0  0  0  0  0  0  0  0  0
    6.9429    0.0290   18.6796 C   0  0  0  0  0  0  0  0  0  0  0  0
    6.3567    0.6100   17.6247 N   0  0  0  0  0  0  0  0  0  0  0  0
    5.2587    1.3049   17.8519 C   0  0  0  0  0  0  0  0  0  0  0  0
    5.2750    0.8048   20.2298 C   0  0  0  0  0  0  0  0  0  0  0  0
    4.6698    1.4668   19.1259 C   0  0  0  0  0  0  0  0  0  0  0  0
    3.5698    2.3197   19.3681 C   0  0  0  0  0  0  0  0  0  0  0  0
    3.0929    2.5026   20.6332 C   0  0  0  0  0  0  0  0  0  0  0  0
    4.7312    1.0177   21.5229 C   0  0  0  0  0  0  0  0  0  0  0  0
    3.6591    1.8586   21.7341 C   0  0  0  0  0  0  0  0  0  0  0  0
    3.1163    2.0935   23.1212 C   0  0  0  0  0  0  0  0  0  0  0  0
   14.2699    0.3821   23.5001 H   0  0  0  0  0  0  0  0  0  0  0  0
   12.4267    1.4420   24.7687 H   0  0  0  0  0  0  0  0  0  0  0  0
   10.0935    0.8255   24.3012 H   0  0  0  0  0  0  0  0  0  0  0  0
   11.4170   -1.9633   21.3488 H   0  0  0  0  0  0  0  0  0  0  0  0
    9.1098   -1.9718   22.0933 H   0  0  0  0  0  0  0  0  0  0  0  0
    8.5428   -0.8141   23.3443 H   0  0  0  0  0  0  0  0  0  0  0  0
    6.7388   -0.6519   21.8877 H   0  0  0  0  0  0  0  0  0  0  0  0
    7.8555   -0.5186   18.4961 H   0  0  0  0  0  0  0  0  0  0  0  0
    4.7788    1.7808   17.0094 H   0  0  0  0  0  0  0  0  0  0  0  0
    3.1007    2.8331   18.5418 H   0  0  0  0  0  0  0  0  0  0  0  0
    2.2535    3.1645   20.7869 H   0  0  0  0  0  0  0  0  0  0  0  0
    5.1699    0.5060   22.3667 H   0  0  0  0  0  0  0  0  0  0  0  0
    2.0594    1.7910   23.1579 H   0  0  0  0  0  0  0  0  0  0  0  0
    3.6929    1.4999   23.8459 H   0  0  0  0  0  0  0  0  0  0  0  0
    3.2008    3.1612   23.3720 H   0  0  0  0  0  0  0  0  0  0  0  0
  1  2  1  0  0  0  0
  2  3  2  0  0  0  0
  2  6  1  0  0  0  0
  3  4  1  0  0  0  0
  3 23  1  0  0  0  0
  4  5  2  0  0  0  0
  4 24  1  0  0  0  0
  5  7  1  0  0  0  0
  5 25  1  0  0  0  0
  6  7  2  0  0  0  0
  6 26  1  0  0  0  0
  7  8  1  0  0  0  0
  8  9  1  0  0  0  0
  8 27  1  0  0  0  0
  8 28  1  0  0  0  0
  9 10  2  0  0  0  0
  9 11  1  0  0  0  0
 11 12  1  0  0  0  0
 11 29  1  0  0  0  0
 12 13  2  0  0  0  0
 12 16  1  0  0  0  0
 13 14  1  0  0  0  0
 13 30  1  0  0  0  0
 14 15  2  0  0  0  0
 15 17  1  0  0  0  0
 15 31  1  0  0  0  0
 16 17  2  0  0  0  0
 16 20  1  0  0  0  0
 17 18  1  0  0  0  0
 18 19  2  0  0  0  0
 18 32  1  0  0  0  0
 19 21  1  0  0  0  0
 19 33  1  0  0  0  0
 20 21  2  0  0  0  0
 20 34  1  0  0  0  0
 21 22  1  0  0  0  0
 22 35  1  0  0  0  0
 22 36  1  0  0  0  0
 22 37  1  0  0  0  0
M  END
> <compound_name>
RUB-POS-1325a9ea-4

> <provenance>
{"isomeric_smiles": "Cc1ccc2cncc(c2c1)NC(=O)Cc3cccc(c3)Cl", "inchi": "InChI=1S/C18H15ClN2O/c1-12-5-6-14-10-20-11-17(16(14)7-12)21-18(22)9-13-3-2-4-15(19)8-13/h2-8,10-11H,9H2,1H3,(H,21,22)", "inchi_key": "BSUXNZPXAUGDQM-UHFFFAOYSA-N", "fixed_inchi": "InChI=1/C18H15ClN2O/c1-12-5-6-14-10-20-11-17(16(14)7-12)21-18(22)9-13-3-2-4-15(19)8-13/h2-8,10-11H,9H2,1H3,(H,21,22)/f/h21H", "fixed_inchikey": "BSUXNZPXAUGDQM-PKSOQXRJNA-N"}

> <data_format>
sdf

$$$$
