LIG(A-306)
  -OEChem-06042511403D

 44 48  0     1  0  0  0  0  0999 V2000
   14.0506   -1.6961   20.8406 Cl  0  0  0  0  0  0  0  0  0  0  0  0
   13.1297   -0.7682   21.9957 C   0  0  0  0  0  0  0  0  0  0  0  0
   13.7797    0.1699   22.7717 C   0  0  0  0  0  0  0  0  0  0  0  0
   13.0387    1.0197   23.5698 C   0  0  0  0  0  0  0  0  0  0  0  0
   11.7527   -0.9144   22.0239 C   0  0  0  0  0  0  0  0  0  0  0  0
   10.9867   -0.0465   22.8031 C   0  0  0  0  0  0  0  0  0  0  0  0
   11.6577    0.9156   23.5780 C   0  0  0  0  0  0  0  0  0  0  0  0
   11.0127    1.7965   24.4131 O   0  0  0  0  0  0  0  0  0  0  0  0
    9.5847    1.9263   24.2443 C   0  0  0  0  0  0  0  0  0  0  0  0
    8.9088    0.5892   24.0274 C   0  0  0  0  0  0  0  0  0  0  0  0
    9.4527   -0.0927   22.7593 C   0  0  2  0  0  0  0  0  0  0  0  0
    8.8168   -1.4108   22.5913 N   0  0  0  0  0  0  0  0  0  0  0  0
    9.0771   -2.5508   23.4683 C   0  0  0  0  0  0  0  0  0  0  0  0
    8.8404    0.6563   21.5404 C   0  0  0  0  0  0  0  0  0  0  0  0
    9.1402    1.7633   21.1354 O   0  0  0  0  0  0  0  0  0  0  0  0
    7.8965   -0.2068   20.9635 N   0  0  0  0  0  0  0  0  0  0  0  0
    7.8957   -1.4559   21.5865 C   0  0  0  0  0  0  0  0  0  0  0  0
    7.1948   -2.4079   21.3016 O   0  0  0  0  0  0  0  0  0  0  0  0
    7.0032    0.1781   19.8926 C   0  0  0  0  0  0  0  0  0  0  0  0
    5.8512    0.9679   20.1898 C   0  0  0  0  0  0  0  0  0  0  0  0
    5.4123    1.2978   21.4999 C   0  0  0  0  0  0  0  0  0  0  0  0
    4.3003    2.0657   21.6971 C   0  0  0  0  0  0  0  0  0  0  0  0
    3.5700    2.5476   20.6162 C   0  0  0  0  0  0  0  0  0  0  0  0
    3.9489    2.2597   19.3361 C   0  0  0  0  0  0  0  0  0  0  0  0
    5.0940    1.4608   19.0879 C   0  0  0  0  0  0  0  0  0  0  0  0
    5.5318    1.1239   17.7819 C   0  0  0  0  0  0  0  0  0  0  0  0
    6.6049    0.3871   17.5197 N   0  0  0  0  0  0  0  0  0  0  0  0
    7.3161   -0.0669   18.5606 C   0  0  0  0  0  0  0  0  0  0  0  0
   14.8574    0.2389   22.7551 H   0  0  0  0  0  0  0  0  0  0  0  0
   13.5324    1.7595   24.1825 H   0  0  0  0  0  0  0  0  0  0  0  0
   11.2759   -1.6935   21.4478 H   0  0  0  0  0  0  0  0  0  0  0  0
    9.1627    2.3939   25.1462 H   0  0  0  0  0  0  0  0  0  0  0  0
    9.3881    2.5677   23.3725 H   0  0  0  0  0  0  0  0  0  0  0  0
    9.1000   -0.0578   24.8962 H   0  0  0  0  0  0  0  0  0  0  0  0
    7.8255    0.7452   23.9177 H   0  0  0  0  0  0  0  0  0  0  0  0
    8.4830   -3.4141   23.1342 H   0  0  0  0  0  0  0  0  0  0  0  0
   10.1466   -2.8052   23.4309 H   0  0  0  0  0  0  0  0  0  0  0  0
    8.7978   -2.2908   24.5000 H   0  0  0  0  0  0  0  0  0  0  0  0
    5.9666    0.9359   22.3532 H   0  0  0  0  0  0  0  0  0  0  0  0
    3.9847    2.3010   22.7028 H   0  0  0  0  0  0  0  0  0  0  0  0
    2.6947    3.1556   20.7907 H   0  0  0  0  0  0  0  0  0  0  0  0
    3.3725    2.6430   18.5071 H   0  0  0  0  0  0  0  0  0  0  0  0
    4.9549    1.4907   16.9459 H   0  0  0  0  0  0  0  0  0  0  0  0
    8.1915   -0.6634   18.3504 H   0  0  0  0  0  0  0  0  0  0  0  0
  1  2  1  0  0  0  0
  2  3  2  0  0  0  0
  2  5  1  0  0  0  0
  3  4  1  0  0  0  0
  3 29  1  0  0  0  0
  4  7  2  0  0  0  0
  4 30  1  0  0  0  0
  5  6  2  0  0  0  0
  5 31  1  0  0  0  0
  6  7  1  0  0  0  0
  6 11  1  0  0  0  0
  7  8  1  0  0  0  0
  8  9  1  0  0  0  0
  9 10  1  0  0  0  0
  9 32  1  0  0  0  0
  9 33  1  0  0  0  0
 10 11  1  0  0  0  0
 10 34  1  0  0  0  0
 10 35  1  0  0  0  0
 11 12  1  0  0  0  0
 11 14  1  0  0  0  0
 12 13  1  0  0  0  0
 12 17  1  0  0  0  0
 13 36  1  0  0  0  0
 13 37  1  0  0  0  0
 13 38  1  0  0  0  0
 14 15  2  0  0  0  0
 14 16  1  0  0  0  0
 16 17  1  0  0  0  0
 16 19  1  0  0  0  0
 17 18  2  0  0  0  0
 19 20  2  0  0  0  0
 19 28  1  0  0  0  0
 20 21  1  0  0  0  0
 20 25  1  0  0  0  0
 21 22  2  0  0  0  0
 21 39  1  0  0  0  0
 22 23  1  0  0  0  0
 22 40  1  0  0  0  0
 23 24  2  0  0  0  0
 23 41  1  0  0  0  0
 24 25  1  0  0  0  0
 24 42  1  0  0  0  0
 25 26  2  0  0  0  0
 26 27  1  0  0  0  0
 26 43  1  0  0  0  0
 27 28  2  0  0  0  0
 28 44  1  0  0  0  0
M  END
> <compound_name>
BEN-BAS-c2bc0d80-7

> <provenance>
{"isomeric_smiles": "CN1C(=O)N(C(=O)[C@@]12CCOc3c2cc(cc3)Cl)c4cncc5c4cccc5", "inchi": "InChI=1S/C21H16ClN3O3/c1-24-20(27)25(17-12-23-11-13-4-2-3-5-15(13)17)19(26)21(24)8-9-28-18-7-6-14(22)10-16(18)21/h2-7,10-12H,8-9H2,1H3/t21-/m0/s1", "inchi_key": "JBTXEVNTEFVYSG-NRFANRHFSA-N", "fixed_inchi": "InChI=1/C21H16ClN3O3/c1-24-20(27)25(17-12-23-11-13-4-2-3-5-15(13)17)19(26)21(24)8-9-28-18-7-6-14(22)10-16(18)21/h2-7,10-12H,8-9H2,1H3/t21-/m0/s1", "fixed_inchikey": "JBTXEVNTEFVYSG-NRFANRHFNA-N"}

> <data_format>
sdf

$$$$
