LIG(A-305)
  -OEChem-06042511363D

 28 29  0     0  0  0  0  0  0999 V2000
   14.5596   -2.1143   20.5308 N   0  0  0  0  0  0  0  0  0  0  0  0
   13.8357   -1.5542   21.2108 C   0  0  0  0  0  0  0  0  0  0  0  0
   12.8798   -0.8712   22.0409 C   0  0  0  0  0  0  0  0  0  0  0  0
   13.2589    0.1468   22.9139 C   0  0  0  0  0  0  0  0  0  0  0  0
   12.3860    0.8468   23.6500 N   0  0  0  0  0  0  0  0  0  0  0  0
   11.0820    0.5569   23.5071 C   0  0  0  0  0  0  0  0  0  0  0  0
   11.5258   -1.1651   21.9220 C   0  0  0  0  0  0  0  0  0  0  0  0
   10.5979   -0.4231   22.6361 C   0  0  0  0  0  0  0  0  0  0  0  0
    9.2428   -0.6310   22.3073 N   0  0  0  0  0  0  0  0  0  0  0  0
    8.5348    0.0340   21.3753 C   0  0  0  0  0  0  0  0  0  0  0  0
    8.9368    1.0530   20.8203 O   0  0  0  0  0  0  0  0  0  0  0  0
    7.1867   -0.5769   21.0474 C   0  0  0  0  0  0  0  0  0  0  0  0
    6.5347    0.1102   19.8695 C   0  0  0  0  0  0  0  0  0  0  0  0
    7.0075   -0.0788   18.5815 C   0  0  0  0  0  0  0  0  0  0  0  0
    6.4825    0.5062   17.4985 N   0  0  0  0  0  0  0  0  0  0  0  0
    5.4365    1.3233   17.6846 C   0  0  0  0  0  0  0  0  0  0  0  0
    4.8907    1.5833   18.9277 C   0  0  0  0  0  0  0  0  0  0  0  0
    5.4497    0.9602   20.0286 C   0  0  0  0  0  0  0  0  0  0  0  0
   14.3091    0.3830   23.0012 H   0  0  0  0  0  0  0  0  0  0  0  0
   10.3683    1.1118   24.0980 H   0  0  0  0  0  0  0  0  0  0  0  0
   11.1989   -1.9672   21.2769 H   0  0  0  0  0  0  0  0  0  0  0  0
    8.7597   -1.3431   22.8168 H   0  0  0  0  0  0  0  0  0  0  0  0
    7.3263   -1.6412   20.8071 H   0  0  0  0  0  0  0  0  0  0  0  0
    6.5294   -0.4822   21.9243 H   0  0  0  0  0  0  0  0  0  0  0  0
    7.8513   -0.7385   18.4427 H   0  0  0  0  0  0  0  0  0  0  0  0
    4.9988    1.8020   16.8212 H   0  0  0  0  0  0  0  0  0  0  0  0
    4.0512    2.2541   19.0362 H   0  0  0  0  0  0  0  0  0  0  0  0
    5.0414    1.1355   21.0130 H   0  0  0  0  0  0  0  0  0  0  0  0
  1  2  3  0  0  0  0
  2  3  1  0  0  0  0
  3  4  2  0  0  0  0
  3  7  1  0  0  0  0
  4  5  1  0  0  0  0
  4 19  1  0  0  0  0
  5  6  2  0  0  0  0
  6  8  1  0  0  0  0
  6 20  1  0  0  0  0
  7  8  2  0  0  0  0
  7 21  1  0  0  0  0
  8  9  1  0  0  0  0
  9 10  1  0  0  0  0
  9 22  1  0  0  0  0
 10 11  2  0  0  0  0
 10 12  1  0  0  0  0
 12 13  1  0  0  0  0
 12 23  1  0  0  0  0
 12 24  1  0  0  0  0
 13 14  2  0  0  0  0
 13 18  1  0  0  0  0
 14 15  1  0  0  0  0
 14 25  1  0  0  0  0
 15 16  2  0  0  0  0
 16 17  1  0  0  0  0
 16 26  1  0  0  0  0
 17 18  2  0  0  0  0
 17 27  1  0  0  0  0
 18 28  1  0  0  0  0
M  END
> <compound_name>
DAR-DIA-23aa0b97-6

> <provenance>
{"isomeric_smiles": "c1cc(cnc1)CC(=O)Nc2cc(cnc2)C#N", "inchi": "InChI=1S/C13H10N4O/c14-6-11-4-12(9-16-8-11)17-13(18)5-10-2-1-3-15-7-10/h1-4,7-9H,5H2,(H,17,18)", "inchi_key": "NFHVZMZTKNOYHY-UHFFFAOYSA-N", "fixed_inchi": "InChI=1/C13H10N4O/c14-6-11-4-12(9-16-8-11)17-13(18)5-10-2-1-3-15-7-10/h1-4,7-9H,5H2,(H,17,18)/f/h17H", "fixed_inchikey": "NFHVZMZTKNOYHY-HCKMINDGNA-N"}

> <data_format>
sdf

$$$$
