LIG(A-306)
  -OEChem-06042511383D

 42 45  0     1  0  0  0  0  0999 V2000
    9.1828    1.2806   21.0496 O   0  0  0  0  0  0  0  0  0  0  0  0
    8.6833    0.2564   21.5158 C   0  0  0  0  0  0  0  0  0  0  0  0
    9.3055   -0.4596   22.7133 C   0  0  1  0  0  0  0  0  0  0  0  0
   10.8076   -0.3154   22.8476 C   0  0  0  0  0  0  0  0  0  0  0  0
   11.6799   -1.0996   22.0940 C   0  0  0  0  0  0  0  0  0  0  0  0
   13.0379   -0.8515   22.1343 C   0  0  0  0  0  0  0  0  0  0  0  0
   14.0778   -1.6664   20.9976 Cl  0  0  0  0  0  0  0  0  0  0  0  0
   13.5717    0.1178   22.9571 C   0  0  0  0  0  0  0  0  0  0  0  0
   12.7255    0.8901   23.7317 C   0  0  0  0  0  0  0  0  0  0  0  0
   11.3564    0.6730   23.6724 C   0  0  0  0  0  0  0  0  0  0  0  0
   10.5882    1.4504   24.5059 O   0  0  0  0  0  0  0  0  0  0  0  0
    9.1630    1.4570   24.3063 C   0  0  0  0  0  0  0  0  0  0  0  0
    8.6027    0.0875   23.9791 C   0  0  2  0  0  0  0  0  0  0  0  0
    8.7469   -0.8636   25.1676 C   0  0  0  0  0  0  0  0  0  0  0  0
    7.5608   -0.3215   21.0258 N   0  0  0  0  0  0  0  0  0  0  0  0
    6.7757    0.1107   19.9339 C   0  0  0  0  0  0  0  0  0  0  0  0
    5.6040    0.8861   20.1978 C   0  0  0  0  0  0  0  0  0  0  0  0
    5.1213    1.1723   21.5018 C   0  0  0  0  0  0  0  0  0  0  0  0
    4.0194    1.9586   21.6876 C   0  0  0  0  0  0  0  0  0  0  0  0
    3.3413    2.4938   20.6013 C   0  0  0  0  0  0  0  0  0  0  0  0
    3.7621    2.2416   19.3263 C   0  0  0  0  0  0  0  0  0  0  0  0
    4.9009    1.4333   19.0896 C   0  0  0  0  0  0  0  0  0  0  0  0
    5.3986    1.1591   17.7935 C   0  0  0  0  0  0  0  0  0  0  0  0
    6.4793    0.4317   17.5486 N   0  0  0  0  0  0  0  0  0  0  0  0
    7.1344   -0.0765   18.5998 C   0  0  0  0  0  0  0  0  0  0  0  0
    9.0681   -1.5307   22.6322 H   0  0  0  0  0  0  0  0  0  0  0  0
   11.2942   -1.8999   21.4798 H   0  0  0  0  0  0  0  0  0  0  0  0
   14.6399    0.2723   22.9963 H   0  0  0  0  0  0  0  0  0  0  0  0
   13.1273    1.6565   24.3779 H   0  0  0  0  0  0  0  0  0  0  0  0
    8.6824    1.8214   25.2262 H   0  0  0  0  0  0  0  0  0  0  0  0
    8.9290    2.1387   23.4754 H   0  0  0  0  0  0  0  0  0  0  0  0
    7.5316    0.1957   23.7532 H   0  0  0  0  0  0  0  0  0  0  0  0
    8.3331   -1.8477   24.9026 H   0  0  0  0  0  0  0  0  0  0  0  0
    9.8112   -0.9705   25.4244 H   0  0  0  0  0  0  0  0  0  0  0  0
    8.2005   -0.4565   26.0311 H   0  0  0  0  0  0  0  0  0  0  0  0
    7.2517   -1.1508   21.4913 H   0  0  0  0  0  0  0  0  0  0  0  0
    5.6327    0.7622   22.3601 H   0  0  0  0  0  0  0  0  0  0  0  0
    3.6728    2.1656   22.6893 H   0  0  0  0  0  0  0  0  0  0  0  0
    2.4733    3.1150   20.7655 H   0  0  0  0  0  0  0  0  0  0  0  0
    3.2215    2.6624   18.4914 H   0  0  0  0  0  0  0  0  0  0  0  0
    4.8634    1.5689   16.9497 H   0  0  0  0  0  0  0  0  0  0  0  0
    8.0084   -0.6781   18.3988 H   0  0  0  0  0  0  0  0  0  0  0  0
  1  2  2  0  0  0  0
  2  3  1  0  0  0  0
  2 15  1  0  0  0  0
  3  4  1  0  0  0  0
  3 13  1  0  0  0  0
  3 26  1  0  0  0  0
  4  5  2  0  0  0  0
  4 10  1  0  0  0  0
  5  6  1  0  0  0  0
  5 27  1  0  0  0  0
  6  7  1  0  0  0  0
  6  8  2  0  0  0  0
  8  9  1  0  0  0  0
  8 28  1  0  0  0  0
  9 10  2  0  0  0  0
  9 29  1  0  0  0  0
 10 11  1  0  0  0  0
 11 12  1  0  0  0  0
 12 13  1  0  0  0  0
 12 30  1  0  0  0  0
 12 31  1  0  0  0  0
 13 14  1  0  0  0  0
 13 32  1  0  0  0  0
 14 33  1  0  0  0  0
 14 34  1  0  0  0  0
 14 35  1  0  0  0  0
 15 16  1  0  0  0  0
 15 36  1  0  0  0  0
 16 17  2  0  0  0  0
 16 25  1  0  0  0  0
 17 18  1  0  0  0  0
 17 22  1  0  0  0  0
 18 19  2  0  0  0  0
 18 37  1  0  0  0  0
 19 20  1  0  0  0  0
 19 38  1  0  0  0  0
 20 21  2  0  0  0  0
 20 39  1  0  0  0  0
 21 22  1  0  0  0  0
 21 40  1  0  0  0  0
 22 23  2  0  0  0  0
 23 24  1  0  0  0  0
 23 41  1  0  0  0  0
 24 25  2  0  0  0  0
 25 42  1  0  0  0  0
M  END
> <compound_name>
EDJ-MED-e4b030d8-11

> <provenance>
{"isomeric_smiles": "C[C@H]1COc2ccc(cc2[C@@H]1C(=O)Nc3cncc4c3cccc4)Cl", "inchi": "InChI=1S/C20H17ClN2O2/c1-12-11-25-18-7-6-14(21)8-16(18)19(12)20(24)23-17-10-22-9-13-4-2-3-5-15(13)17/h2-10,12,19H,11H2,1H3,(H,23,24)/t12-,19+/m0/s1", "inchi_key": "SGXOKACJPFKOBB-HXPMCKFVSA-N", "fixed_inchi": "InChI=1/C20H17ClN2O2/c1-12-11-25-18-7-6-14(21)8-16(18)19(12)20(24)23-17-10-22-9-13-4-2-3-5-15(13)17/h2-10,12,19H,11H2,1H3,(H,23,24)/t12-,19+/m0/s1/f/h23H", "fixed_inchikey": "SGXOKACJPFKOBB-RCGZBZNFNA-N"}

> <data_format>
sdf

$$$$
