LIG(A-305)
  -OEChem-06042511343D

 34 35  0     0  0  0  0  0  0999 V2000
   14.5083   -0.4657   23.3951 F   0  0  0  0  0  0  0  0  0  0  0  0
   13.5982   -1.2717   22.9081 C   0  0  0  0  0  0  0  0  0  0  0  0
   13.8362   -1.3007   21.5891 F   0  0  0  0  0  0  0  0  0  0  0  0
   13.8631   -2.4857   23.4070 F   0  0  0  0  0  0  0  0  0  0  0  0
   12.2192   -0.8116   23.2421 C   0  0  0  0  0  0  0  0  0  0  0  0
   11.9893   -0.0196   24.3632 C   0  0  0  0  0  0  0  0  0  0  0  0
   10.6994    0.2995   24.7422 C   0  0  0  0  0  0  0  0  0  0  0  0
    9.6283   -0.1714   24.0012 C   0  0  0  0  0  0  0  0  0  0  0  0
   11.1392   -1.2615   22.4951 C   0  0  0  0  0  0  0  0  0  0  0  0
    9.8372   -0.9554   22.8722 C   0  0  0  0  0  0  0  0  0  0  0  0
    8.6762   -1.4853   22.0722 C   0  0  0  0  0  0  0  0  0  0  0  0
    8.2002   -0.4312   21.0953 C   0  0  0  0  0  0  0  0  0  0  0  0
    8.8473    0.5887   20.8733 O   0  0  0  0  0  0  0  0  0  0  0  0
    7.0242   -0.7171   20.5053 N   0  0  0  0  0  0  0  0  0  0  0  0
    6.4352    0.0279   19.4703 C   0  0  0  0  0  0  0  0  0  0  0  0
    5.2963    0.8090   19.7324 C   0  0  0  0  0  0  0  0  0  0  0  0
    4.7223    0.9440   21.1194 C   0  0  0  0  0  0  0  0  0  0  0  0
    6.9942    0.0429   18.1973 C   0  0  0  0  0  0  0  0  0  0  0  0
    6.4972    0.7770   17.1953 N   0  0  0  0  0  0  0  0  0  0  0  0
    5.4062    1.5151   17.4504 C   0  0  0  0  0  0  0  0  0  0  0  0
    4.7763    1.5471   18.6764 C   0  0  0  0  0  0  0  0  0  0  0  0
   12.8246    0.3480   24.9406 H   0  0  0  0  0  0  0  0  0  0  0  0
   10.5270    0.9141   25.6134 H   0  0  0  0  0  0  0  0  0  0  0  0
    8.6206    0.0728   24.3035 H   0  0  0  0  0  0  0  0  0  0  0  0
   11.3128   -1.8564   21.6106 H   0  0  0  0  0  0  0  0  0  0  0  0
    8.9938   -2.3803   21.5172 H   0  0  0  0  0  0  0  0  0  0  0  0
    7.8539   -1.7491   22.7535 H   0  0  0  0  0  0  0  0  0  0  0  0
    6.5307   -1.5241   20.8297 H   0  0  0  0  0  0  0  0  0  0  0  0
    5.4783    1.3806   21.7886 H   0  0  0  0  0  0  0  0  0  0  0  0
    3.8385    1.5982   21.0882 H   0  0  0  0  0  0  0  0  0  0  0  0
    4.4308   -0.0485   21.4936 H   0  0  0  0  0  0  0  0  0  0  0  0
    7.8673   -0.5642   18.0093 H   0  0  0  0  0  0  0  0  0  0  0  0
    4.9992    2.1171   16.6515 H   0  0  0  0  0  0  0  0  0  0  0  0
    3.8852    2.1414   18.8148 H   0  0  0  0  0  0  0  0  0  0  0  0
  1  2  1  0  0  0  0
  2  3  1  0  0  0  0
  2  4  1  0  0  0  0
  2  5  1  0  0  0  0
  5  6  2  0  0  0  0
  5  9  1  0  0  0  0
  6  7  1  0  0  0  0
  6 22  1  0  0  0  0
  7  8  2  0  0  0  0
  7 23  1  0  0  0  0
  8 10  1  0  0  0  0
  8 24  1  0  0  0  0
  9 10  2  0  0  0  0
  9 25  1  0  0  0  0
 10 11  1  0  0  0  0
 11 12  1  0  0  0  0
 11 26  1  0  0  0  0
 11 27  1  0  0  0  0
 12 13  2  0  0  0  0
 12 14  1  0  0  0  0
 14 15  1  0  0  0  0
 14 28  1  0  0  0  0
 15 16  2  0  0  0  0
 15 18  1  0  0  0  0
 16 17  1  0  0  0  0
 16 21  1  0  0  0  0
 17 29  1  0  0  0  0
 17 30  1  0  0  0  0
 17 31  1  0  0  0  0
 18 19  2  0  0  0  0
 18 32  1  0  0  0  0
 19 20  1  0  0  0  0
 20 21  2  0  0  0  0
 20 33  1  0  0  0  0
 21 34  1  0  0  0  0
M  END
> <compound_name>
JAN-GHE-83b26c96-14

> <provenance>
{"isomeric_smiles": "Cc1ccncc1NC(=O)Cc2cccc(c2)C(F)(F)F", "inchi": "InChI=1S/C15H13F3N2O/c1-10-5-6-19-9-13(10)20-14(21)8-11-3-2-4-12(7-11)15(16,17)18/h2-7,9H,8H2,1H3,(H,20,21)", "inchi_key": "XYFCSWHALYQBPC-UHFFFAOYSA-N", "fixed_inchi": "InChI=1/C15H13F3N2O/c1-10-5-6-19-9-13(10)20-14(21)8-11-3-2-4-12(7-11)15(16,17)18/h2-7,9H,8H2,1H3,(H,20,21)/f/h20H", "fixed_inchikey": "XYFCSWHALYQBPC-UYBDAZJANA-N"}

> <data_format>
sdf

$$$$
