LIG(A-306)
  -OEChem-06042511383D

 35 37  0     0  0  0  0  0  0999 V2000
   12.5536    1.7921   26.1883 N   0  0  0  0  0  0  0  0  0  0  0  0
   12.2537    1.1346   25.3087 C   0  0  0  0  0  0  0  0  0  0  0  0
   11.9145    0.3098   24.1794 C   0  0  0  0  0  0  0  0  0  0  0  0
   12.9237   -0.1876   23.3602 C   0  0  0  0  0  0  0  0  0  0  0  0
   12.5736   -0.9454   22.2628 C   0  0  0  0  0  0  0  0  0  0  0  0
   13.8315   -1.5761   21.2336 Cl  0  0  0  0  0  0  0  0  0  0  0  0
   10.5782    0.0473   23.8862 C   0  0  0  0  0  0  0  0  0  0  0  0
   10.2421   -0.7076   22.7668 C   0  0  0  0  0  0  0  0  0  0  0  0
   11.2533   -1.2129   21.9556 C   0  0  0  0  0  0  0  0  0  0  0  0
    8.7907   -0.9692   22.4297 C   0  0  0  0  0  0  0  0  0  0  0  0
    8.2287   -0.0339   21.3768 C   0  0  0  0  0  0  0  0  0  0  0  0
    8.4317    1.1811   21.4085 O   0  0  0  0  0  0  0  0  0  0  0  0
    7.5756   -0.6626   20.3725 N   0  0  0  0  0  0  0  0  0  0  0  0
    6.5288   -0.2290   19.5328 C   0  0  0  0  0  0  0  0  0  0  0  0
    5.5582    0.7227   19.9872 C   0  0  0  0  0  0  0  0  0  0  0  0
    5.1556    0.8580   21.3424 C   0  0  0  0  0  0  0  0  0  0  0  0
    4.1380    1.6976   21.6961 C   0  0  0  0  0  0  0  0  0  0  0  0
    3.4800    2.4550   20.7375 C   0  0  0  0  0  0  0  0  0  0  0  0
    3.8226    2.3588   19.4203 C   0  0  0  0  0  0  0  0  0  0  0  0
    4.8562    1.4811   19.0057 C   0  0  0  0  0  0  0  0  0  0  0  0
    5.1518    1.2329   17.6478 C   0  0  0  0  0  0  0  0  0  0  0  0
    6.0014    0.3112   17.2265 N   0  0  0  0  0  0  0  0  0  0  0  0
    6.6444   -0.4043   18.1540 C   0  0  0  0  0  0  0  0  0  0  0  0
   13.9613    0.0162   23.5799 H   0  0  0  0  0  0  0  0  0  0  0  0
    9.8006    0.4309   24.5300 H   0  0  0  0  0  0  0  0  0  0  0  0
   11.0075   -1.8110   21.0906 H   0  0  0  0  0  0  0  0  0  0  0  0
    8.7012   -2.0014   22.0601 H   0  0  0  0  0  0  0  0  0  0  0  0
    8.1956   -0.8555   23.3478 H   0  0  0  0  0  0  0  0  0  0  0  0
    7.8893   -1.5954   20.1949 H   0  0  0  0  0  0  0  0  0  0  0  0
    5.6627    0.2873   22.1063 H   0  0  0  0  0  0  0  0  0  0  0  0
    3.8424    1.7727   22.7321 H   0  0  0  0  0  0  0  0  0  0  0  0
    2.6892    3.1269   21.0369 H   0  0  0  0  0  0  0  0  0  0  0  0
    3.3019    2.9566   18.6868 H   0  0  0  0  0  0  0  0  0  0  0  0
    4.6513    1.8352   16.9042 H   0  0  0  0  0  0  0  0  0  0  0  0
    7.3082   -1.1825   17.8074 H   0  0  0  0  0  0  0  0  0  0  0  0
  1  2  3  0  0  0  0
  2  3  1  0  0  0  0
  3  4  2  0  0  0  0
  3  7  1  0  0  0  0
  4  5  1  0  0  0  0
  4 24  1  0  0  0  0
  5  6  1  0  0  0  0
  5  9  2  0  0  0  0
  7  8  2  0  0  0  0
  7 25  1  0  0  0  0
  8  9  1  0  0  0  0
  8 10  1  0  0  0  0
  9 26  1  0  0  0  0
 10 11  1  0  0  0  0
 10 27  1  0  0  0  0
 10 28  1  0  0  0  0
 11 12  2  0  0  0  0
 11 13  1  0  0  0  0
 13 14  1  0  0  0  0
 13 29  1  0  0  0  0
 14 15  2  0  0  0  0
 14 23  1  0  0  0  0
 15 16  1  0  0  0  0
 15 20  1  0  0  0  0
 16 17  2  0  0  0  0
 16 30  1  0  0  0  0
 17 18  1  0  0  0  0
 17 31  1  0  0  0  0
 18 19  2  0  0  0  0
 18 32  1  0  0  0  0
 19 20  1  0  0  0  0
 19 33  1  0  0  0  0
 20 21  2  0  0  0  0
 21 22  1  0  0  0  0
 21 34  1  0  0  0  0
 22 23  2  0  0  0  0
 23 35  1  0  0  0  0
M  END
> <compound_name>
RAL-THA-2d450e86-17

> <provenance>
{"isomeric_smiles": "c1ccc2c(c1)cncc2NC(=O)Cc3cc(cc(c3)Cl)C#N", "inchi": "InChI=1S/C18H12ClN3O/c19-15-6-12(5-13(7-15)9-20)8-18(23)22-17-11-21-10-14-3-1-2-4-16(14)17/h1-7,10-11H,8H2,(H,22,23)", "inchi_key": "RIBHDGSWGQEONR-UHFFFAOYSA-N", "fixed_inchi": "InChI=1/C18H12ClN3O/c19-15-6-12(5-13(7-15)9-20)8-18(23)22-17-11-21-10-14-3-1-2-4-16(14)17/h1-7,10-11H,8H2,(H,22,23)/f/h22H", "fixed_inchikey": "RIBHDGSWGQEONR-QWOVJGMINA-N"}

> <data_format>
sdf

$$$$
