LIG(A-305)
  -OEChem-06042511373D

 34 35  0     0  0  0  0  0  0999 V2000
   11.2605   -3.6972   27.0740 Cl  0  0  0  0  0  0  0  0  0  0  0  0
   11.9235   -2.7611   25.7640 C   0  0  0  0  0  0  0  0  0  0  0  0
   13.2825   -2.8011   25.5279 C   0  0  0  0  0  0  0  0  0  0  0  0
   13.8094   -1.9701   24.5529 C   0  0  0  0  0  0  0  0  0  0  0  0
   12.9794   -1.1221   23.8330 C   0  0  0  0  0  0  0  0  0  0  0  0
   11.0804   -1.9411   25.0401 C   0  0  0  0  0  0  0  0  0  0  0  0
   11.6074   -1.1020   24.0631 C   0  0  0  0  0  0  0  0  0  0  0  0
   10.6923   -0.1990   23.2682 C   0  0  0  0  0  0  0  0  0  0  0  0
    9.5963   -0.9660   22.4892 C   0  0  0  0  0  0  0  0  0  0  0  0
    8.8922   -0.1069   21.4603 C   0  0  0  0  0  0  0  0  0  0  0  0
    9.3772    0.9501   21.0643 O   0  0  0  0  0  0  0  0  0  0  0  0
    7.7112   -0.6019   21.0223 N   0  0  0  0  0  0  0  0  0  0  0  0
    6.9111   -0.0468   19.9874 C   0  0  0  0  0  0  0  0  0  0  0  0
    5.7362    0.6662   20.3005 C   0  0  0  0  0  0  0  0  0  0  0  0
    5.2473    0.8221   21.7176 C   0  0  0  0  0  0  0  0  0  0  0  0
    7.2871   -0.1487   18.6474 C   0  0  0  0  0  0  0  0  0  0  0  0
    6.5980    0.3973   17.6405 N   0  0  0  0  0  0  0  0  0  0  0  0
    5.4850    1.0723   17.9506 C   0  0  0  0  0  0  0  0  0  0  0  0
    5.0251    1.2292   19.2436 C   0  0  0  0  0  0  0  0  0  0  0  0
   13.9211   -3.4657   26.0908 H   0  0  0  0  0  0  0  0  0  0  0  0
   14.8705   -1.9821   24.3521 H   0  0  0  0  0  0  0  0  0  0  0  0
   13.4039   -0.4693   23.0846 H   0  0  0  0  0  0  0  0  0  0  0  0
   10.0175   -1.9510   25.2313 H   0  0  0  0  0  0  0  0  0  0  0  0
   10.2025    0.4995   23.9626 H   0  0  0  0  0  0  0  0  0  0  0  0
   11.3010    0.3669   22.5475 H   0  0  0  0  0  0  0  0  0  0  0  0
   10.0635   -1.8182   21.9740 H   0  0  0  0  0  0  0  0  0  0  0  0
    8.8496   -1.3360   23.2072 H   0  0  0  0  0  0  0  0  0  0  0  0
    7.3717   -1.4312   21.4661 H   0  0  0  0  0  0  0  0  0  0  0  0
    6.0126    1.3387   22.3153 H   0  0  0  0  0  0  0  0  0  0  0  0
    4.3188    1.4120   21.7222 H   0  0  0  0  0  0  0  0  0  0  0  0
    5.0531   -0.1706   22.1496 H   0  0  0  0  0  0  0  0  0  0  0  0
    8.1852   -0.6998   18.4105 H   0  0  0  0  0  0  0  0  0  0  0  0
    4.9164    1.5178   17.1477 H   0  0  0  0  0  0  0  0  0  0  0  0
    4.1191    1.7854   19.4339 H   0  0  0  0  0  0  0  0  0  0  0  0
  1  2  1  0  0  0  0
  2  3  2  0  0  0  0
  2  6  1  0  0  0  0
  3  4  1  0  0  0  0
  3 20  1  0  0  0  0
  4  5  2  0  0  0  0
  4 21  1  0  0  0  0
  5  7  1  0  0  0  0
  5 22  1  0  0  0  0
  6  7  2  0  0  0  0
  6 23  1  0  0  0  0
  7  8  1  0  0  0  0
  8  9  1  0  0  0  0
  8 24  1  0  0  0  0
  8 25  1  0  0  0  0
  9 10  1  0  0  0  0
  9 26  1  0  0  0  0
  9 27  1  0  0  0  0
 10 11  2  0  0  0  0
 10 12  1  0  0  0  0
 12 13  1  0  0  0  0
 12 28  1  0  0  0  0
 13 14  2  0  0  0  0
 13 16  1  0  0  0  0
 14 15  1  0  0  0  0
 14 19  1  0  0  0  0
 15 29  1  0  0  0  0
 15 30  1  0  0  0  0
 15 31  1  0  0  0  0
 16 17  2  0  0  0  0
 16 32  1  0  0  0  0
 17 18  1  0  0  0  0
 18 19  2  0  0  0  0
 18 33  1  0  0  0  0
 19 34  1  0  0  0  0
M  END
> <compound_name>
ALP-POS-f13221e1-4

> <provenance>
{"isomeric_smiles": "Cc1ccncc1NC(=O)CCc2cccc(c2)Cl", "inchi": "InChI=1S/C15H15ClN2O/c1-11-7-8-17-10-14(11)18-15(19)6-5-12-3-2-4-13(16)9-12/h2-4,7-10H,5-6H2,1H3,(H,18,19)", "inchi_key": "CQMIDRCPLJZCFD-UHFFFAOYSA-N", "fixed_inchi": "InChI=1/C15H15ClN2O/c1-11-7-8-17-10-14(11)18-15(19)6-5-12-3-2-4-13(16)9-12/h2-4,7-10H,5-6H2,1H3,(H,18,19)/f/h18H", "fixed_inchikey": "CQMIDRCPLJZCFD-GPQMBLKYNA-N"}

> <data_format>
sdf

$$$$
