LIG(A-305)
  -OEChem-06042511323D

 48 50  0     1  0  0  0  0  0999 V2000
    9.2820    0.9872   21.0509 O   0  0  0  0  0  0  0  0  0  0  0  0
    8.9639   -0.1857   21.2209 C   0  0  0  0  0  0  0  0  0  0  0  0
    7.8308   -0.7337   20.7251 N   0  0  0  0  0  0  0  0  0  0  0  0
    6.9397   -0.0976   19.8242 C   0  0  0  0  0  0  0  0  0  0  0  0
    7.1825   -0.0886   18.4492 C   0  0  0  0  0  0  0  0  0  0  0  0
    6.3994    0.5344   17.5633 N   0  0  0  0  0  0  0  0  0  0  0  0
    5.3205    1.1665   18.0345 C   0  0  0  0  0  0  0  0  0  0  0  0
    4.9897    1.2175   19.3746 C   0  0  0  0  0  0  0  0  0  0  0  0
    5.8048    0.5854   20.3084 C   0  0  0  0  0  0  0  0  0  0  0  0
    5.4931    0.6795   21.7795 C   0  0  0  0  0  0  0  0  0  0  0  0
    9.8460   -1.1508   21.9998 C   0  0  0  0  0  0  0  0  0  0  0  0
   10.1482   -0.7128   23.4438 C   0  0  2  0  0  0  0  0  0  0  0  0
   11.0953   -1.6019   24.2126 C   0  0  0  0  0  0  0  0  0  0  0  0
   12.3694   -1.2380   24.5614 C   0  0  0  0  0  0  0  0  0  0  0  0
   13.1924   -2.4860   25.4033 S   0  0  0  0  0  0  0  0  0  0  0  0
   11.8544   -3.5309   25.3265 C   0  0  0  0  0  0  0  0  0  0  0  0
   10.8053   -2.9259   24.6526 C   0  0  0  0  0  0  0  0  0  0  0  0
    8.9004   -0.3548   24.1679 N   0  3  0  0  0  0  0  0  0  0  0  0
    7.9904   -1.4757   24.4591 C   0  0  0  0  0  0  0  0  0  0  0  0
    6.6124   -0.9766   24.9043 C   0  0  0  0  0  0  0  0  0  0  0  0
    6.7237   -0.0347   26.0903 C   0  0  0  0  0  0  0  0  0  0  0  0
    5.4478    0.5544   26.3755 O   0  0  0  0  0  0  0  0  0  0  0  0
    7.7547    1.0543   25.8511 C   0  0  0  0  0  0  0  0  0  0  0  0
    9.0876    0.4692   25.3729 C   0  0  0  0  0  0  0  0  0  0  0  0
    7.6033   -1.6625   21.0176 H   0  0  0  0  0  0  0  0  0  0  0  0
    8.0512   -0.6143   18.0812 H   0  0  0  0  0  0  0  0  0  0  0  0
    4.6719    1.6645   17.3291 H   0  0  0  0  0  0  0  0  0  0  0  0
    4.1036    1.7449   19.6956 H   0  0  0  0  0  0  0  0  0  0  0  0
    6.3212    1.1840   22.2988 H   0  0  0  0  0  0  0  0  0  0  0  0
    4.5664    1.2548   21.9217 H   0  0  0  0  0  0  0  0  0  0  0  0
    5.3636   -0.3320   22.1921 H   0  0  0  0  0  0  0  0  0  0  0  0
    9.3400   -2.1269   22.0353 H   0  0  0  0  0  0  0  0  0  0  0  0
   10.8014   -1.2522   21.4641 H   0  0  0  0  0  0  0  0  0  0  0  0
   10.6906    0.2375   23.3314 H   0  0  0  0  0  0  0  0  0  0  0  0
   12.8052   -0.2766   24.3329 H   0  0  0  0  0  0  0  0  0  0  0  0
   11.8256   -4.5265   25.7441 H   0  0  0  0  0  0  0  0  0  0  0  0
    9.8570   -3.4121   24.4775 H   0  0  0  0  0  0  0  0  0  0  0  0
    8.3950    0.2290   23.5324 H   0  0  0  0  0  0  0  0  0  0  0  0
    7.8736   -2.0867   23.5518 H   0  0  0  0  0  0  0  0  0  0  0  0
    8.4247   -2.0900   25.2615 H   0  0  0  0  0  0  0  0  0  0  0  0
    6.1365   -0.4445   24.0675 H   0  0  0  0  0  0  0  0  0  0  0  0
    5.9934   -1.8401   25.1893 H   0  0  0  0  0  0  0  0  0  0  0  0
    7.0491   -0.6234   26.9606 H   0  0  0  0  0  0  0  0  0  0  0  0
    4.9344   -0.0428   26.9069 H   0  0  0  0  0  0  0  0  0  0  0  0
    7.3729    1.7463   25.0861 H   0  0  0  0  0  0  0  0  0  0  0  0
    7.9211    1.6018   26.7906 H   0  0  0  0  0  0  0  0  0  0  0  0
    9.7794    1.2926   25.1416 H   0  0  0  0  0  0  0  0  0  0  0  0
    9.5141   -0.1545   26.1724 H   0  0  0  0  0  0  0  0  0  0  0  0
  1  2  2  0  0  0  0
  2  3  1  0  0  0  0
  2 11  1  0  0  0  0
  3  4  1  0  0  0  0
  3 25  1  0  0  0  0
  4  5  2  0  0  0  0
  4  9  1  0  0  0  0
  5  6  1  0  0  0  0
  5 26  1  0  0  0  0
  6  7  2  0  0  0  0
  7  8  1  0  0  0  0
  7 27  1  0  0  0  0
  8  9  2  0  0  0  0
  8 28  1  0  0  0  0
  9 10  1  0  0  0  0
 10 29  1  0  0  0  0
 10 30  1  0  0  0  0
 10 31  1  0  0  0  0
 11 12  1  0  0  0  0
 11 32  1  0  0  0  0
 11 33  1  0  0  0  0
 12 13  1  0  0  0  0
 12 18  1  0  0  0  0
 12 34  1  0  0  0  0
 13 14  2  0  0  0  0
 13 17  1  0  0  0  0
 14 15  1  0  0  0  0
 14 35  1  0  0  0  0
 15 16  1  0  0  0  0
 16 17  2  0  0  0  0
 16 36  1  0  0  0  0
 17 37  1  0  0  0  0
 18 19  1  0  0  0  0
 18 24  1  0  0  0  0
 18 38  1  0  0  0  0
 19 20  1  0  0  0  0
 19 39  1  0  0  0  0
 19 40  1  0  0  0  0
 20 21  1  0  0  0  0
 20 41  1  0  0  0  0
 20 42  1  0  0  0  0
 21 22  1  0  0  0  0
 21 23  1  0  0  0  0
 21 43  1  0  0  0  0
 22 44  1  0  0  0  0
 23 24  1  0  0  0  0
 23 45  1  0  0  0  0
 23 46  1  0  0  0  0
 24 47  1  0  0  0  0
 24 48  1  0  0  0  0
M  CHG  1  18   1
M  END
> <compound_name>
PET-SGC-a8a902d9-1

> <provenance>
{"isomeric_smiles": "Cc1ccncc1NC(=O)C[C@H](c2ccsc2)[NH+]3CCC(CC3)O", "inchi": "InChI=1S/C18H23N3O2S/c1-13-2-6-19-11-16(13)20-18(23)10-17(14-5-9-24-12-14)21-7-3-15(22)4-8-21/h2,5-6,9,11-12,15,17,22H,3-4,7-8,10H2,1H3,(H,20,23)/p+1/t17-/m1/s1", "inchi_key": "ASXLXOCGCKXODB-QGZVFWFLSA-O", "fixed_inchi": "InChI=1/C18H23N3O2S/c1-13-2-6-19-11-16(13)20-18(23)10-17(14-5-9-24-12-14)21-7-3-15(22)4-8-21/h2,5-6,9,11-12,15,17,22H,3-4,7-8,10H2,1H3,(H,20,23)/p+1/t17-/m1/s1/fC18H24N3O2S/h20-21H/q+1", "fixed_inchikey": "ASXLXOCGCKXODB-MRLPYMOHNA-O"}

> <data_format>
sdf

$$$$
