LIG(A-306)
  -OEChem-06042511423D

 44 46  0     0  0  0  0  0  0999 V2000
   14.0365   -1.3497   21.5685 Cl  0  0  0  0  0  0  0  0  0  0  0  0
   12.6901   -0.8995   22.5775 C   0  0  0  0  0  0  0  0  0  0  0  0
   12.8859    0.0049   23.6030 C   0  0  0  0  0  0  0  0  0  0  0  0
   11.7992    0.3667   24.3834 C   0  0  0  0  0  0  0  0  0  0  0  0
   10.5388   -0.1418   24.1055 C   0  0  0  0  0  0  0  0  0  0  0  0
   11.4447   -1.4260   22.3015 C   0  0  0  0  0  0  0  0  0  0  0  0
   10.3401   -1.0140   23.0412 C   0  0  0  0  0  0  0  0  0  0  0  0
    8.9440   -1.3522   22.5672 C   0  0  0  0  0  0  0  0  0  0  0  0
    8.4362   -0.2544   21.6510 C   0  0  0  0  0  0  0  0  0  0  0  0
    9.2000    0.5663   21.1497 O   0  0  0  0  0  0  0  0  0  0  0  0
    7.1022   -0.2212   21.4689 N   0  0  0  0  0  0  0  0  0  0  0  0
    6.3742    0.0505   20.2946 C   0  0  0  0  0  0  0  0  0  0  0  0
    6.8310   -0.1751   18.9952 C   0  0  0  0  0  0  0  0  0  0  0  0
    6.2705    0.3089   17.8779 N   0  0  0  0  0  0  0  0  0  0  0  0
    5.1975    1.0688   18.0143 C   0  0  0  0  0  0  0  0  0  0  0  0
    5.2213    0.8816   20.4394 C   0  0  0  0  0  0  0  0  0  0  0  0
    4.6220    1.4100   19.2623 C   0  0  0  0  0  0  0  0  0  0  0  0
    3.5603    2.3340   19.3925 C   0  0  0  0  0  0  0  0  0  0  0  0
    3.1360    2.7399   20.6208 C   0  0  0  0  0  0  0  0  0  0  0  0
    4.7371    1.3115   21.6988 C   0  0  0  0  0  0  0  0  0  0  0  0
    3.7224    2.2356   21.7899 C   0  0  0  0  0  0  0  0  0  0  0  0
    3.2311    2.6370   23.1442 C   0  0  0  0  0  0  0  0  0  0  0  0
    2.4217    1.9232   23.7101 O   0  0  0  0  0  0  0  0  0  0  0  0
    3.6792    3.7853   23.6817 N   0  0  0  0  0  0  0  0  0  0  0  0
    4.5632    4.7404   23.0140 C   0  0  0  0  0  0  0  0  0  0  0  0
    3.3378    4.1392   25.0587 C   0  0  0  0  0  0  0  0  0  0  0  0
   13.8643    0.4211   23.7924 H   0  0  0  0  0  0  0  0  0  0  0  0
   11.9341    1.0471   25.2111 H   0  0  0  0  0  0  0  0  0  0  0  0
    9.7008    0.1437   24.7241 H   0  0  0  0  0  0  0  0  0  0  0  0
   11.3276   -2.1556   21.5139 H   0  0  0  0  0  0  0  0  0  0  0  0
    8.9647   -2.3057   22.0191 H   0  0  0  0  0  0  0  0  0  0  0  0
    8.2747   -1.4428   23.4355 H   0  0  0  0  0  0  0  0  0  0  0  0
    6.5520   -0.4167   22.2807 H   0  0  0  0  0  0  0  0  0  0  0  0
    7.7102   -0.7917   18.8802 H   0  0  0  0  0  0  0  0  0  0  0  0
    4.7312    1.4530   17.1190 H   0  0  0  0  0  0  0  0  0  0  0  0
    3.0799    2.7227   18.5068 H   0  0  0  0  0  0  0  0  0  0  0  0
    2.3356    3.4612   20.6955 H   0  0  0  0  0  0  0  0  0  0  0  0
    5.1712    0.9076   22.6014 H   0  0  0  0  0  0  0  0  0  0  0  0
    4.7659    5.5861   23.6877 H   0  0  0  0  0  0  0  0  0  0  0  0
    5.5098    4.2440   22.7540 H   0  0  0  0  0  0  0  0  0  0  0  0
    4.0789    5.1095   22.0979 H   0  0  0  0  0  0  0  0  0  0  0  0
    3.7944    5.1071   25.3130 H   0  0  0  0  0  0  0  0  0  0  0  0
    2.2448    4.2120   25.1582 H   0  0  0  0  0  0  0  0  0  0  0  0
    3.7173    3.3645   25.7411 H   0  0  0  0  0  0  0  0  0  0  0  0
  1  2  1  0  0  0  0
  2  3  2  0  0  0  0
  2  6  1  0  0  0  0
  3  4  1  0  0  0  0
  3 27  1  0  0  0  0
  4  5  2  0  0  0  0
  4 28  1  0  0  0  0
  5  7  1  0  0  0  0
  5 29  1  0  0  0  0
  6  7  2  0  0  0  0
  6 30  1  0  0  0  0
  7  8  1  0  0  0  0
  8  9  1  0  0  0  0
  8 31  1  0  0  0  0
  8 32  1  0  0  0  0
  9 10  2  0  0  0  0
  9 11  1  0  0  0  0
 11 12  1  0  0  0  0
 11 33  1  0  0  0  0
 12 13  2  0  0  0  0
 12 16  1  0  0  0  0
 13 14  1  0  0  0  0
 13 34  1  0  0  0  0
 14 15  2  0  0  0  0
 15 17  1  0  0  0  0
 15 35  1  0  0  0  0
 16 17  2  0  0  0  0
 16 20  1  0  0  0  0
 17 18  1  0  0  0  0
 18 19  2  0  0  0  0
 18 36  1  0  0  0  0
 19 21  1  0  0  0  0
 19 37  1  0  0  0  0
 20 21  2  0  0  0  0
 20 38  1  0  0  0  0
 21 22  1  0  0  0  0
 22 23  2  0  0  0  0
 22 24  1  0  0  0  0
 24 25  1  0  0  0  0
 24 26  1  0  0  0  0
 25 39  1  0  0  0  0
 25 40  1  0  0  0  0
 25 41  1  0  0  0  0
 26 42  1  0  0  0  0
 26 43  1  0  0  0  0
 26 44  1  0  0  0  0
M  END
> <compound_name>
MAT-POS-90fd5f68-21

> <provenance>
{"isomeric_smiles": "CN(C)C(=O)c1ccc2cncc(c2c1)NC(=O)Cc3cccc(c3)Cl", "inchi": "InChI=1S/C20H18ClN3O2/c1-24(2)20(26)14-6-7-15-11-22-12-18(17(15)10-14)23-19(25)9-13-4-3-5-16(21)8-13/h3-8,10-12H,9H2,1-2H3,(H,23,25)", "inchi_key": "CAOMTBMUDFASIS-UHFFFAOYSA-N", "fixed_inchi": "InChI=1/C20H18ClN3O2/c1-24(2)20(26)14-6-7-15-11-22-12-18(17(15)10-14)23-19(25)9-13-4-3-5-16(21)8-13/h3-8,10-12H,9H2,1-2H3,(H,23,25)/f/h23H", "fixed_inchikey": "CAOMTBMUDFASIS-MPIMZMORNA-N"}

> <data_format>
sdf

$$$$
