LIG(A-306)
  -OEChem-06042511423D

 51 54  0     1  0  0  0  0  0999 V2000
   14.0571   -1.5338   21.2965 Cl  0  0  0  0  0  0  0  0  0  0  0  0
   12.8201   -0.8101   22.2895 C   0  0  0  0  0  0  0  0  0  0  0  0
   11.5180   -1.2573   22.1704 C   0  0  0  0  0  0  0  0  0  0  0  0
   13.1619    0.1824   23.1785 C   0  0  0  0  0  0  0  0  0  0  0  0
   12.1827    0.7178   23.9955 C   0  0  0  0  0  0  0  0  0  0  0  0
   10.8586    0.2917   23.9065 C   0  0  0  0  0  0  0  0  0  0  0  0
    9.8115    0.9202   24.7974 C   0  0  0  0  0  0  0  0  0  0  0  0
    8.4470    0.7124   24.2890 N   0  3  2  0  0  0  0  0  0  0  0  0
    7.4158    1.2928   25.1450 C   0  0  0  0  0  0  0  0  0  0  0  0
    6.7573    2.5359   24.5695 C   0  0  0  0  0  0  0  0  0  0  0  0
    5.7498    3.0068   25.0947 O   0  0  0  0  0  0  0  0  0  0  0  0
    7.3143    3.0660   23.4841 N   0  0  0  0  0  0  0  0  0  0  0  0
    6.7667    4.2329   22.8157 C   0  0  0  0  0  0  0  0  0  0  0  0
   10.5187   -0.6899   22.9604 C   0  0  0  0  0  0  0  0  0  0  0  0
    9.0605   -1.0543   22.7374 C   0  0  1  0  0  0  0  0  0  0  0  0
    8.2266   -0.6952   23.9666 C   0  0  0  0  0  0  0  0  0  0  0  0
    8.5584   -0.2232   21.5535 C   0  0  0  0  0  0  0  0  0  0  0  0
    9.0442    0.8713   21.2652 O   0  0  0  0  0  0  0  0  0  0  0  0
    7.5058   -0.7623   20.8924 N   0  0  0  0  0  0  0  0  0  0  0  0
    6.7708   -0.1941   19.8291 C   0  0  0  0  0  0  0  0  0  0  0  0
    5.6481    0.6304   20.1437 C   0  0  0  0  0  0  0  0  0  0  0  0
    5.1853    0.8567   21.4628 C   0  0  0  0  0  0  0  0  0  0  0  0
    4.1296    1.6841   21.7074 C   0  0  0  0  0  0  0  0  0  0  0  0
    3.5046    2.3283   20.6549 C   0  0  0  0  0  0  0  0  0  0  0  0
    2.2420    3.4770   21.0051 Cl  0  0  0  0  0  0  0  0  0  0  0  0
    3.8804    2.1352   19.3559 C   0  0  0  0  0  0  0  0  0  0  0  0
    4.9621    1.2707   19.0703 C   0  0  0  0  0  0  0  0  0  0  0  0
    5.4169    1.0114   17.7533 C   0  0  0  0  0  0  0  0  0  0  0  0
    6.4496    0.2309   17.4617 N   0  0  0  0  0  0  0  0  0  0  0  0
    7.1015   -0.3424   18.4820 C   0  0  0  0  0  0  0  0  0  0  0  0
   11.2755   -2.0420   21.4692 H   0  0  0  0  0  0  0  0  0  0  0  0
   14.1799    0.5383   23.2376 H   0  0  0  0  0  0  0  0  0  0  0  0
   12.4485    1.4787   24.7144 H   0  0  0  0  0  0  0  0  0  0  0  0
    9.8868    0.4746   25.8003 H   0  0  0  0  0  0  0  0  0  0  0  0
   10.0041    2.0013   24.8611 H   0  0  0  0  0  0  0  0  0  0  0  0
    8.3980    1.2068   23.4212 H   0  0  0  0  0  0  0  0  0  0  0  0
    6.6365    0.5341   25.3097 H   0  0  0  0  0  0  0  0  0  0  0  0
    7.8764    1.5603   26.1074 H   0  0  0  0  0  0  0  0  0  0  0  0
    8.1422    2.6446   23.1141 H   0  0  0  0  0  0  0  0  0  0  0  0
    7.3929    4.4864   21.9475 H   0  0  0  0  0  0  0  0  0  0  0  0
    5.7427    4.0150   22.4779 H   0  0  0  0  0  0  0  0  0  0  0  0
    6.7491    5.0816   23.5152 H   0  0  0  0  0  0  0  0  0  0  0  0
    8.9651   -2.1272   22.5145 H   0  0  0  0  0  0  0  0  0  0  0  0
    8.5329   -1.3218   24.8171 H   0  0  0  0  0  0  0  0  0  0  0  0
    7.1608   -0.8631   23.7525 H   0  0  0  0  0  0  0  0  0  0  0  0
    7.2148   -1.6705   21.1932 H   0  0  0  0  0  0  0  0  0  0  0  0
    5.6771    0.3654   22.2894 H   0  0  0  0  0  0  0  0  0  0  0  0
    3.7826    1.8359   22.7189 H   0  0  0  0  0  0  0  0  0  0  0  0
    3.3570    2.6373   18.5557 H   0  0  0  0  0  0  0  0  0  0  0  0
    4.8893    1.4789   16.9350 H   0  0  0  0  0  0  0  0  0  0  0  0
    7.9489   -0.9679   18.2431 H   0  0  0  0  0  0  0  0  0  0  0  0
  1  2  1  0  0  0  0
  2  3  2  0  0  0  0
  2  4  1  0  0  0  0
  3 14  1  0  0  0  0
  3 31  1  0  0  0  0
  4  5  2  0  0  0  0
  4 32  1  0  0  0  0
  5  6  1  0  0  0  0
  5 33  1  0  0  0  0
  6  7  1  0  0  0  0
  6 14  2  0  0  0  0
  7  8  1  0  0  0  0
  7 34  1  0  0  0  0
  7 35  1  0  0  0  0
  8  9  1  0  0  0  0
  8 16  1  0  0  0  0
  8 36  1  0  0  0  0
  9 10  1  0  0  0  0
  9 37  1  0  0  0  0
  9 38  1  0  0  0  0
 10 11  2  0  0  0  0
 10 12  1  0  0  0  0
 12 13  1  0  0  0  0
 12 39  1  0  0  0  0
 13 40  1  0  0  0  0
 13 41  1  0  0  0  0
 13 42  1  0  0  0  0
 14 15  1  0  0  0  0
 15 16  1  0  0  0  0
 15 17  1  0  0  0  0
 15 43  1  0  0  0  0
 16 44  1  0  0  0  0
 16 45  1  0  0  0  0
 17 18  2  0  0  0  0
 17 19  1  0  0  0  0
 19 20  1  0  0  0  0
 19 46  1  0  0  0  0
 20 21  2  0  0  0  0
 20 30  1  0  0  0  0
 21 22  1  0  0  0  0
 21 27  1  0  0  0  0
 22 23  2  0  0  0  0
 22 47  1  0  0  0  0
 23 24  1  0  0  0  0
 23 48  1  0  0  0  0
 24 25  1  0  0  0  0
 24 26  2  0  0  0  0
 26 27  1  0  0  0  0
 26 49  1  0  0  0  0
 27 28  2  0  0  0  0
 28 29  1  0  0  0  0
 28 50  1  0  0  0  0
 29 30  2  0  0  0  0
 30 51  1  0  0  0  0
M  CHG  1   8   1
M  END
> <compound_name>
EDJ-MED-7889e8da-3

> <provenance>
{"isomeric_smiles": "CNC(=O)C[N@H+]1Cc2ccc(cc2[C@@H](C1)C(=O)Nc3cncc4c3ccc(c4)Cl)Cl", "inchi": "InChI=1S/C22H20Cl2N4O2/c1-25-21(29)12-28-10-13-2-3-16(24)7-18(13)19(11-28)22(30)27-20-9-26-8-14-6-15(23)4-5-17(14)20/h2-9,19H,10-12H2,1H3,(H,25,29)(H,27,30)/p+1/t19-/m1/s1", "inchi_key": "LLZCKRVJSZRHHK-LJQANCHMSA-O", "fixed_inchi": "InChI=1/C22H20Cl2N4O2/c1-25-21(29)12-28-10-13-2-3-16(24)7-18(13)19(11-28)22(30)27-20-9-26-8-14-6-15(23)4-5-17(14)20/h2-9,19H,10-12H2,1H3,(H,25,29)(H,27,30)/p+1/t19-/m1/s1/fC22H21Cl2N4O2/h25,27-28H/q+1", "fixed_inchikey": "LLZCKRVJSZRHHK-ODWBQSFDNA-O"}

> <data_format>
sdf

$$$$
