LIG(A-306)
  -OEChem-06042511413D

 57 61  0     1  0  0  0  0  0999 V2000
    9.1129    6.0131   23.1450 N   0  0  0  0  0  0  0  0  0  0  0  0
    8.2115    5.3172   23.1066 C   0  0  0  0  0  0  0  0  0  0  0  0
    7.0347    4.4451   22.9963 C   0  0  0  0  0  0  0  0  0  0  0  0
    6.2175    4.9070   21.7597 C   0  0  0  0  0  0  0  0  0  0  0  0
    5.3293    5.7423   22.6770 C   0  0  0  0  0  0  0  0  0  0  0  0
    5.8388    4.9232   23.8649 C   0  0  0  0  0  0  0  0  0  0  0  0
    7.4637    2.9828   23.0829 C   0  0  0  0  0  0  0  0  0  0  0  0
    7.5622    2.1447   24.6557 S   0  0  0  0  0  0  0  0  0  0  0  0
    6.3148    1.4930   24.9066 O   0  0  0  0  0  0  0  0  0  0  0  0
    8.0702    3.0668   25.6223 O   0  0  0  0  0  0  0  0  0  0  0  0
    8.6787    0.9793   24.4667 N   0  0  3  0  0  0  0  0  0  0  0  0
   10.0723    1.2456   24.8439 C   0  0  0  0  0  0  0  0  0  0  0  0
    8.3688   -0.4214   24.1297 C   0  0  0  0  0  0  0  0  0  0  0  0
    9.1399   -0.7916   22.8618 C   0  0  2  0  0  0  0  0  0  0  0  0
   10.6126   -0.4524   23.0123 C   0  0  0  0  0  0  0  0  0  0  0  0
   11.0218    0.5785   23.8745 C   0  0  0  0  0  0  0  0  0  0  0  0
   12.3587    0.9737   23.8733 C   0  0  0  0  0  0  0  0  0  0  0  0
   13.2863    0.3529   23.0591 C   0  0  0  0  0  0  0  0  0  0  0  0
   11.5622   -1.1044   22.2249 C   0  0  0  0  0  0  0  0  0  0  0  0
   12.8801   -0.6913   22.2608 C   0  0  0  0  0  0  0  0  0  0  0  0
   14.0582   -1.5248   21.2855 Cl  0  0  0  0  0  0  0  0  0  0  0  0
    8.5843   -0.0463   21.6456 C   0  0  0  0  0  0  0  0  0  0  0  0
    9.1433    0.9459   21.1745 O   0  0  0  0  0  0  0  0  0  0  0  0
    7.4312   -0.5554   21.1421 N   0  0  0  0  0  0  0  0  0  0  0  0
    6.6960   -0.0773   20.0326 C   0  0  0  0  0  0  0  0  0  0  0  0
    5.5317    0.7259   20.2667 C   0  0  0  0  0  0  0  0  0  0  0  0
    4.9613    0.9366   21.5489 C   0  0  0  0  0  0  0  0  0  0  0  0
    3.8650    1.7361   21.7080 C   0  0  0  0  0  0  0  0  0  0  0  0
    3.2881    2.3728   20.6163 C   0  0  0  0  0  0  0  0  0  0  0  0
    3.7886    2.1871   19.3593 C   0  0  0  0  0  0  0  0  0  0  0  0
    4.9129    1.3508   19.1469 C   0  0  0  0  0  0  0  0  0  0  0  0
    5.4562    1.0931   17.8636 C   0  0  0  0  0  0  0  0  0  0  0  0
    6.5106    0.3191   17.6426 N   0  0  0  0  0  0  0  0  0  0  0  0
    7.1096   -0.2355   18.7077 C   0  0  0  0  0  0  0  0  0  0  0  0
    6.7947    5.4960   21.0318 H   0  0  0  0  0  0  0  0  0  0  0  0
    5.6901    4.0946   21.2383 H   0  0  0  0  0  0  0  0  0  0  0  0
    5.5933    6.8094   22.7153 H   0  0  0  0  0  0  0  0  0  0  0  0
    4.2516    5.6379   22.4830 H   0  0  0  0  0  0  0  0  0  0  0  0
    6.1272    5.5258   24.7388 H   0  0  0  0  0  0  0  0  0  0  0  0
    5.1604    4.1177   24.1826 H   0  0  0  0  0  0  0  0  0  0  0  0
    6.7526    2.4114   22.4682 H   0  0  0  0  0  0  0  0  0  0  0  0
    8.4662    2.9240   22.6340 H   0  0  0  0  0  0  0  0  0  0  0  0
   10.2487    2.3313   24.8337 H   0  0  0  0  0  0  0  0  0  0  0  0
   10.2544    0.8541   25.8556 H   0  0  0  0  0  0  0  0  0  0  0  0
    8.6745   -1.0794   24.9565 H   0  0  0  0  0  0  0  0  0  0  0  0
    7.2886   -0.5315   23.9537 H   0  0  0  0  0  0  0  0  0  0  0  0
    9.0393   -1.8733   22.6897 H   0  0  0  0  0  0  0  0  0  0  0  0
   12.6746    1.7790   24.5199 H   0  0  0  0  0  0  0  0  0  0  0  0
   14.3148    0.6824   23.0494 H   0  0  0  0  0  0  0  0  0  0  0  0
   11.2685   -1.9277   21.5907 H   0  0  0  0  0  0  0  0  0  0  0  0
    7.0598   -1.3586   21.6079 H   0  0  0  0  0  0  0  0  0  0  0  0
    5.4004    0.4579   22.4117 H   0  0  0  0  0  0  0  0  0  0  0  0
    3.4426    1.8745   22.6923 H   0  0  0  0  0  0  0  0  0  0  0  0
    2.4364    3.0204   20.7629 H   0  0  0  0  0  0  0  0  0  0  0  0
    3.3234    2.6819   18.5195 H   0  0  0  0  0  0  0  0  0  0  0  0
    4.9815    1.5565   17.0112 H   0  0  0  0  0  0  0  0  0  0  0  0
    7.9781   -0.8515   18.5267 H   0  0  0  0  0  0  0  0  0  0  0  0
  1  2  3  0  0  0  0
  2  3  1  0  0  0  0
  3  4  1  0  0  0  0
  3  6  1  0  0  0  0
  3  7  1  0  0  0  0
  4  5  1  0  0  0  0
  4 35  1  0  0  0  0
  4 36  1  0  0  0  0
  5  6  1  0  0  0  0
  5 37  1  0  0  0  0
  5 38  1  0  0  0  0
  6 39  1  0  0  0  0
  6 40  1  0  0  0  0
  7  8  1  0  0  0  0
  7 41  1  0  0  0  0
  7 42  1  0  0  0  0
  8  9  2  0  0  0  0
  8 10  2  0  0  0  0
  8 11  1  0  0  0  0
 11 12  1  0  0  0  0
 11 13  1  0  0  0  0
 12 16  1  0  0  0  0
 12 43  1  0  0  0  0
 12 44  1  0  0  0  0
 13 14  1  0  0  0  0
 13 45  1  0  0  0  0
 13 46  1  0  0  0  0
 14 15  1  0  0  0  0
 14 22  1  0  0  0  0
 14 47  1  0  0  0  0
 15 16  2  0  0  0  0
 15 19  1  0  0  0  0
 16 17  1  0  0  0  0
 17 18  2  0  0  0  0
 17 48  1  0  0  0  0
 18 20  1  0  0  0  0
 18 49  1  0  0  0  0
 19 20  2  0  0  0  0
 19 50  1  0  0  0  0
 20 21  1  0  0  0  0
 22 23  2  0  0  0  0
 22 24  1  0  0  0  0
 24 25  1  0  0  0  0
 24 51  1  0  0  0  0
 25 26  2  0  0  0  0
 25 34  1  0  0  0  0
 26 27  1  0  0  0  0
 26 31  1  0  0  0  0
 27 28  2  0  0  0  0
 27 52  1  0  0  0  0
 28 29  1  0  0  0  0
 28 53  1  0  0  0  0
 29 30  2  0  0  0  0
 29 54  1  0  0  0  0
 30 31  1  0  0  0  0
 30 55  1  0  0  0  0
 31 32  2  0  0  0  0
 32 33  1  0  0  0  0
 32 56  1  0  0  0  0
 33 34  2  0  0  0  0
 34 57  1  0  0  0  0
M  END
> <compound_name>
MAT-POS-4223bc15-12

> <provenance>
{"isomeric_smiles": "c1ccc2c(c1)cncc2NC(=O)[C@@H]3CN(Cc4c3cc(cc4)Cl)S(=O)(=O)CC5(CCC5)C#N", "inchi": "InChI=1S/C25H23ClN4O3S/c26-19-7-6-18-13-30(34(32,33)16-25(15-27)8-3-9-25)14-22(21(18)10-19)24(31)29-23-12-28-11-17-4-1-2-5-20(17)23/h1-2,4-7,10-12,22H,3,8-9,13-14,16H2,(H,29,31)/t22-/m1/s1", "inchi_key": "GJPHCXZDDOVJHH-JOCHJYFZSA-N", "fixed_inchi": "InChI=1/C25H23ClN4O3S/c26-19-7-6-18-13-30(34(32,33)16-25(15-27)8-3-9-25)14-22(21(18)10-19)24(31)29-23-12-28-11-17-4-1-2-5-20(17)23/h1-2,4-7,10-12,22H,3,8-9,13-14,16H2,(H,29,31)/t22-/m1/s1/f/h29H", "fixed_inchikey": "GJPHCXZDDOVJHH-ZJLLOKRPNA-N"}

> <data_format>
sdf

$$$$
