LIG(A-305)
  -OEChem-06042511303D

 43 45  0     0  0  0  0  0  0999 V2000
    8.7365    0.6061   20.8679 O   0  0  0  0  0  0  0  0  0  0  0  0
    8.1724   -0.4739   21.0148 C   0  0  0  0  0  0  0  0  0  0  0  0
    7.0444   -0.8228   20.3748 N   0  0  0  0  0  0  0  0  0  0  0  0
    6.3784   -0.0358   19.4198 C   0  0  0  0  0  0  0  0  0  0  0  0
    5.2435    0.7023   19.7909 C   0  0  0  0  0  0  0  0  0  0  0  0
    4.7485    0.7442   21.2139 C   0  0  0  0  0  0  0  0  0  0  0  0
    4.6355    1.4753   18.8089 C   0  0  0  0  0  0  0  0  0  0  0  0
    5.1725    1.5034   17.5369 C   0  0  0  0  0  0  0  0  0  0  0  0
    6.2665    0.8173   17.1789 N   0  0  0  0  0  0  0  0  0  0  0  0
    6.8484    0.0533   18.1118 C   0  0  0  0  0  0  0  0  0  0  0  0
    8.6944   -1.5309   21.9668 C   0  0  0  0  0  0  0  0  0  0  0  0
    9.9884   -1.0920   22.6038 C   0  0  0  0  0  0  0  0  0  0  0  0
   11.2034   -1.5501   22.1088 C   0  0  0  0  0  0  0  0  0  0  0  0
   12.3754   -1.1551   22.7158 C   0  0  0  0  0  0  0  0  0  0  0  0
   13.8814   -1.8272   22.1577 Cl  0  0  0  0  0  0  0  0  0  0  0  0
   12.3824   -0.2992   23.7978 C   0  0  0  0  0  0  0  0  0  0  0  0
    9.9724   -0.2431   23.7018 C   0  0  0  0  0  0  0  0  0  0  0  0
   11.1655    0.1359   24.2968 C   0  0  0  0  0  0  0  0  0  0  0  0
   11.2545    0.9718   25.3809 O   0  0  0  0  0  0  0  0  0  0  0  0
   10.0625    1.5748   25.9009 C   0  0  0  0  0  0  0  0  0  0  0  0
    9.3065    0.6268   26.7668 C   0  0  0  0  0  0  0  0  0  0  0  0
    9.8764   -0.5052   27.2018 O   0  0  0  0  0  0  0  0  0  0  0  0
    8.9004   -1.1442   28.0138 N   0  0  0  0  0  0  0  0  0  0  0  0
    8.1015    0.7919   27.1899 N   0  0  0  0  0  0  0  0  0  0  0  0
    7.8914   -0.3251   27.9608 C   0  0  0  0  0  0  0  0  0  0  0  0
    6.5974   -0.5481   28.6568 C   0  0  0  0  0  0  0  0  0  0  0  0
    6.6468   -1.7135   20.5954 H   0  0  0  0  0  0  0  0  0  0  0  0
    5.5335    1.1584   21.8636 H   0  0  0  0  0  0  0  0  0  0  0  0
    3.8522    1.3792   21.2716 H   0  0  0  0  0  0  0  0  0  0  0  0
    4.4982   -0.2744   21.5450 H   0  0  0  0  0  0  0  0  0  0  0  0
    3.7501    2.0496   19.0387 H   0  0  0  0  0  0  0  0  0  0  0  0
    4.6840    2.1114   16.7898 H   0  0  0  0  0  0  0  0  0  0  0  0
    7.7218   -0.5199   17.8376 H   0  0  0  0  0  0  0  0  0  0  0  0
    7.9469   -1.7064   22.7545 H   0  0  0  0  0  0  0  0  0  0  0  0
    8.8658   -2.4638   21.4096 H   0  0  0  0  0  0  0  0  0  0  0  0
   11.2288   -2.2106   21.2547 H   0  0  0  0  0  0  0  0  0  0  0  0
   13.3118    0.0231   24.2438 H   0  0  0  0  0  0  0  0  0  0  0  0
    9.0333    0.1211   24.0913 H   0  0  0  0  0  0  0  0  0  0  0  0
   10.3384    2.4591   26.4941 H   0  0  0  0  0  0  0  0  0  0  0  0
    9.4213    1.8819   25.0615 H   0  0  0  0  0  0  0  0  0  0  0  0
    6.7708   -0.6178   29.7408 H   0  0  0  0  0  0  0  0  0  0  0  0
    5.9191    0.2921   28.4473 H   0  0  0  0  0  0  0  0  0  0  0  0
    6.1443   -1.4838   28.2972 H   0  0  0  0  0  0  0  0  0  0  0  0
  1  2  2  0  0  0  0
  2  3  1  0  0  0  0
  2 11  1  0  0  0  0
  3  4  1  0  0  0  0
  3 27  1  0  0  0  0
  4  5  2  0  0  0  0
  4 10  1  0  0  0  0
  5  6  1  0  0  0  0
  5  7  1  0  0  0  0
  6 28  1  0  0  0  0
  6 29  1  0  0  0  0
  6 30  1  0  0  0  0
  7  8  2  0  0  0  0
  7 31  1  0  0  0  0
  8  9  1  0  0  0  0
  8 32  1  0  0  0  0
  9 10  2  0  0  0  0
 10 33  1  0  0  0  0
 11 12  1  0  0  0  0
 11 34  1  0  0  0  0
 11 35  1  0  0  0  0
 12 13  2  0  0  0  0
 12 17  1  0  0  0  0
 13 14  1  0  0  0  0
 13 36  1  0  0  0  0
 14 15  1  0  0  0  0
 14 16  2  0  0  0  0
 16 18  1  0  0  0  0
 16 37  1  0  0  0  0
 17 18  2  0  0  0  0
 17 38  1  0  0  0  0
 18 19  1  0  0  0  0
 19 20  1  0  0  0  0
 20 21  1  0  0  0  0
 20 39  1  0  0  0  0
 20 40  1  0  0  0  0
 21 22  1  0  0  0  0
 21 24  2  0  0  0  0
 22 23  1  0  0  0  0
 23 25  2  0  0  0  0
 24 25  1  0  0  0  0
 25 26  1  0  0  0  0
 26 41  1  0  0  0  0
 26 42  1  0  0  0  0
 26 43  1  0  0  0  0
M  END
> <compound_name>
CHO-MSK-6e55470f-5

> <provenance>
{"isomeric_smiles": "Cc1ccncc1NC(=O)Cc2cc(cc(c2)Cl)OCc3nc(no3)C", "inchi": "InChI=1S/C18H17ClN4O3/c1-11-3-4-20-9-16(11)22-17(24)7-13-5-14(19)8-15(6-13)25-10-18-21-12(2)23-26-18/h3-6,8-9H,7,10H2,1-2H3,(H,22,24)", "inchi_key": "ISRHBBIYTNRSMM-UHFFFAOYSA-N", "fixed_inchi": "InChI=1/C18H17ClN4O3/c1-11-3-4-20-9-16(11)22-17(24)7-13-5-14(19)8-15(6-13)25-10-18-21-12(2)23-26-18/h3-6,8-9H,7,10H2,1-2H3,(H,22,24)/f/h22H", "fixed_inchikey": "ISRHBBIYTNRSMM-QWOVJGMINA-N"}

> <data_format>
sdf

$$$$
