LIG(A-306)
  -OEChem-06042511423D

 41 43  0     0  0  0  0  0  0999 V2000
   14.1460   -1.5262   21.5154 Cl  0  0  0  0  0  0  0  0  0  0  0  0
   12.9225   -0.7959   22.5122 C   0  0  0  0  0  0  0  0  0  0  0  0
   13.2914    0.1395   23.4590 C   0  0  0  0  0  0  0  0  0  0  0  0
   12.3016    0.7265   24.2301 C   0  0  0  0  0  0  0  0  0  0  0  0
   10.9699    0.3952   24.0254 C   0  0  0  0  0  0  0  0  0  0  0  0
   11.6028   -1.1452   22.3084 C   0  0  0  0  0  0  0  0  0  0  0  0
   10.6051   -0.5241   23.0507 C   0  0  0  0  0  0  0  0  0  0  0  0
    9.1536   -0.7735   22.7205 C   0  0  0  0  0  0  0  0  0  0  0  0
    8.7120   -0.0322   21.4743 C   0  0  0  0  0  0  0  0  0  0  0  0
    9.1382    1.0903   21.2020 O   0  0  0  0  0  0  0  0  0  0  0  0
    7.7657   -0.6717   20.7500 N   0  0  0  0  0  0  0  0  0  0  0  0
    6.8977   -0.1280   19.7828 C   0  0  0  0  0  0  0  0  0  0  0  0
    7.1316   -0.1484   18.4077 C   0  0  0  0  0  0  0  0  0  0  0  0
    6.3928    0.4898   17.4900 N   0  0  0  0  0  0  0  0  0  0  0  0
    5.3532    1.1887   17.9196 C   0  0  0  0  0  0  0  0  0  0  0  0
    4.9644    1.2825   19.2762 C   0  0  0  0  0  0  0  0  0  0  0  0
    5.7581    0.5979   20.2416 C   0  0  0  0  0  0  0  0  0  0  0  0
    5.3483    0.6348   21.5968 C   0  0  0  0  0  0  0  0  0  0  0  0
    4.2086    1.2791   21.9692 C   0  0  0  0  0  0  0  0  0  0  0  0
    3.7968    1.9636   19.6987 C   0  0  0  0  0  0  0  0  0  0  0  0
    3.4248    1.9196   21.0185 C   0  0  0  0  0  0  0  0  0  0  0  0
    2.1608    2.4220   21.4232 O   0  0  0  0  0  0  0  0  0  0  0  0
    1.8389    3.9882   21.3062 S   0  0  0  0  0  0  0  0  0  0  0  0
    1.4452    4.2150   19.9564 O   0  0  0  0  0  0  0  0  0  0  0  0
    2.9523    4.6933   21.8418 O   0  0  0  0  0  0  0  0  0  0  0  0
    0.4613    4.1775   22.3603 C   0  0  0  0  0  0  0  0  0  0  0  0
   14.3287    0.4075   23.5952 H   0  0  0  0  0  0  0  0  0  0  0  0
   12.5672    1.4439   24.9924 H   0  0  0  0  0  0  0  0  0  0  0  0
   10.2065    0.8587   24.6326 H   0  0  0  0  0  0  0  0  0  0  0  0
   11.3469   -1.8970   21.5765 H   0  0  0  0  0  0  0  0  0  0  0  0
    9.0072   -1.8520   22.5611 H   0  0  0  0  0  0  0  0  0  0  0  0
    8.5358   -0.4409   23.5676 H   0  0  0  0  0  0  0  0  0  0  0  0
    7.6702   -1.6521   20.9225 H   0  0  0  0  0  0  0  0  0  0  0  0
    7.9746   -0.7239   18.0550 H   0  0  0  0  0  0  0  0  0  0  0  0
    4.7645    1.7211   17.1872 H   0  0  0  0  0  0  0  0  0  0  0  0
    5.9499    0.1435   22.3472 H   0  0  0  0  0  0  0  0  0  0  0  0
    3.9127    1.2923   23.0078 H   0  0  0  0  0  0  0  0  0  0  0  0
    3.2021    2.5151   18.9855 H   0  0  0  0  0  0  0  0  0  0  0  0
    0.1430    5.2305   22.3630 H   0  0  0  0  0  0  0  0  0  0  0  0
   -0.3646    3.5459   22.0012 H   0  0  0  0  0  0  0  0  0  0  0  0
    0.7368    3.8752   23.3814 H   0  0  0  0  0  0  0  0  0  0  0  0
  1  2  1  0  0  0  0
  2  3  2  0  0  0  0
  2  6  1  0  0  0  0
  3  4  1  0  0  0  0
  3 27  1  0  0  0  0
  4  5  2  0  0  0  0
  4 28  1  0  0  0  0
  5  7  1  0  0  0  0
  5 29  1  0  0  0  0
  6  7  2  0  0  0  0
  6 30  1  0  0  0  0
  7  8  1  0  0  0  0
  8  9  1  0  0  0  0
  8 31  1  0  0  0  0
  8 32  1  0  0  0  0
  9 10  2  0  0  0  0
  9 11  1  0  0  0  0
 11 12  1  0  0  0  0
 11 33  1  0  0  0  0
 12 13  2  0  0  0  0
 12 17  1  0  0  0  0
 13 14  1  0  0  0  0
 13 34  1  0  0  0  0
 14 15  2  0  0  0  0
 15 16  1  0  0  0  0
 15 35  1  0  0  0  0
 16 17  2  0  0  0  0
 16 20  1  0  0  0  0
 17 18  1  0  0  0  0
 18 19  2  0  0  0  0
 18 36  1  0  0  0  0
 19 21  1  0  0  0  0
 19 37  1  0  0  0  0
 20 21  2  0  0  0  0
 20 38  1  0  0  0  0
 21 22  1  0  0  0  0
 22 23  1  0  0  0  0
 23 24  2  0  0  0  0
 23 25  2  0  0  0  0
 23 26  1  0  0  0  0
 26 39  1  0  0  0  0
 26 40  1  0  0  0  0
 26 41  1  0  0  0  0
M  END
> <compound_name>
PET-UNK-7fb4f80a-1

> <provenance>
{"isomeric_smiles": "CS(=O)(=O)Oc1ccc2c(c1)cncc2NC(=O)Cc3cccc(c3)Cl", "inchi": "InChI=1S/C18H15ClN2O4S/c1-26(23,24)25-15-5-6-16-13(9-15)10-20-11-17(16)21-18(22)8-12-3-2-4-14(19)7-12/h2-7,9-11H,8H2,1H3,(H,21,22)", "inchi_key": "DLGHRHRFJGLPSU-UHFFFAOYSA-N", "fixed_inchi": "InChI=1/C18H15ClN2O4S/c1-26(23,24)25-15-5-6-16-13(9-15)10-20-11-17(16)21-18(22)8-12-3-2-4-14(19)7-12/h2-7,9-11H,8H2,1H3,(H,21,22)/f/h21H", "fixed_inchikey": "DLGHRHRFJGLPSU-PKSOQXRJNA-N"}

> <data_format>
sdf

$$$$
