LIG(A-306)
  -OEChem-06042511413D

 52 55  0     1  0  0  0  0  0999 V2000
   14.0961   -1.6646   21.2251 Cl  0  0  0  0  0  0  0  0  0  0  0  0
   12.9260   -0.8150   22.2015 C   0  0  0  0  0  0  0  0  0  0  0  0
   11.5972   -1.2020   22.1567 C   0  0  0  0  0  0  0  0  0  0  0  0
   13.3472    0.2161   23.0076 C   0  0  0  0  0  0  0  0  0  0  0  0
   12.4277    0.8510   23.8189 C   0  0  0  0  0  0  0  0  0  0  0  0
   11.0819    0.4888   23.8073 C   0  0  0  0  0  0  0  0  0  0  0  0
   10.1395    1.1951   24.7569 C   0  0  0  0  0  0  0  0  0  0  0  0
    8.7419    0.9518   24.3849 N   0  0  2  0  0  0  0  0  0  0  0  0
    7.6050    1.8820   25.0267 S   0  0  0  0  0  0  0  0  0  0  0  0
    6.3449    1.4169   24.5615 O   0  0  0  0  0  0  0  0  0  0  0  0
    7.8704    1.9825   26.4222 O   0  0  0  0  0  0  0  0  0  0  0  0
    7.9118    3.2997   24.3567 N   0  0  1  0  0  0  0  0  0  0  0  0
    7.7690    3.4773   22.8976 C   0  0  0  0  0  0  0  0  0  0  0  0
    6.7090    4.4462   22.5676 C   0  0  0  0  0  0  0  0  0  0  0  0
    5.9065    5.2004   22.2665 N   0  0  0  0  0  0  0  0  0  0  0  0
    7.8224    4.5048   25.1888 C   0  0  0  0  0  0  0  0  0  0  0  0
   10.6557   -0.5340   22.9442 C   0  0  0  0  0  0  0  0  0  0  0  0
    9.1740   -0.8553   22.8218 C   0  0  1  0  0  0  0  0  0  0  0  0
    8.4310   -0.4611   24.0989 C   0  0  0  0  0  0  0  0  0  0  0  0
    8.6045   -0.0572   21.6438 C   0  0  0  0  0  0  0  0  0  0  0  0
    9.1615    0.9508   21.2078 O   0  0  0  0  0  0  0  0  0  0  0  0
    7.4484   -0.5472   21.1265 N   0  0  0  0  0  0  0  0  0  0  0  0
    6.7123   -0.0512   20.0231 C   0  0  0  0  0  0  0  0  0  0  0  0
    5.5389    0.7341   20.2632 C   0  0  0  0  0  0  0  0  0  0  0  0
    4.9765    0.9418   21.5493 C   0  0  0  0  0  0  0  0  0  0  0  0
    3.8712    1.7283   21.7144 C   0  0  0  0  0  0  0  0  0  0  0  0
    3.2703    2.3440   20.6245 C   0  0  0  0  0  0  0  0  0  0  0  0
    3.7678    2.1703   19.3656 C   0  0  0  0  0  0  0  0  0  0  0  0
    4.9041    1.3540   19.1463 C   0  0  0  0  0  0  0  0  0  0  0  0
    5.4504    1.1153   17.8591 C   0  0  0  0  0  0  0  0  0  0  0  0
    6.5218    0.3652   17.6332 N   0  0  0  0  0  0  0  0  0  0  0  0
    7.1278   -0.1884   18.6953 C   0  0  0  0  0  0  0  0  0  0  0  0
   11.2901   -2.0159   21.5166 H   0  0  0  0  0  0  0  0  0  0  0  0
   14.3821    0.5250   23.0063 H   0  0  0  0  0  0  0  0  0  0  0  0
   12.7575    1.6430   24.4748 H   0  0  0  0  0  0  0  0  0  0  0  0
   10.3106    0.8223   25.7776 H   0  0  0  0  0  0  0  0  0  0  0  0
   10.3381    2.2764   24.7235 H   0  0  0  0  0  0  0  0  0  0  0  0
    8.7233    3.8396   22.4875 H   0  0  0  0  0  0  0  0  0  0  0  0
    7.5193    2.5072   22.4432 H   0  0  0  0  0  0  0  0  0  0  0  0
    8.0615    5.3895   24.5805 H   0  0  0  0  0  0  0  0  0  0  0  0
    6.8020    4.5995   25.5883 H   0  0  0  0  0  0  0  0  0  0  0  0
    8.5368    4.4288   26.0218 H   0  0  0  0  0  0  0  0  0  0  0  0
    9.0420   -1.9313   22.6354 H   0  0  0  0  0  0  0  0  0  0  0  0
    8.7631   -1.0938   24.9352 H   0  0  0  0  0  0  0  0  0  0  0  0
    7.3475   -0.5836   23.9541 H   0  0  0  0  0  0  0  0  0  0  0  0
    7.0717   -1.3554   21.5791 H   0  0  0  0  0  0  0  0  0  0  0  0
    5.4286    0.4716   22.4101 H   0  0  0  0  0  0  0  0  0  0  0  0
    3.4607    1.8724   22.7029 H   0  0  0  0  0  0  0  0  0  0  0  0
    2.4006    2.9666   20.7745 H   0  0  0  0  0  0  0  0  0  0  0  0
    3.2908    2.6596   18.5293 H   0  0  0  0  0  0  0  0  0  0  0  0
    4.9642    1.5725   17.0099 H   0  0  0  0  0  0  0  0  0  0  0  0
    8.0067   -0.7878   18.5093 H   0  0  0  0  0  0  0  0  0  0  0  0
  1  2  1  0  0  0  0
  2  3  2  0  0  0  0
  2  4  1  0  0  0  0
  3 17  1  0  0  0  0
  3 33  1  0  0  0  0
  4  5  2  0  0  0  0
  4 34  1  0  0  0  0
  5  6  1  0  0  0  0
  5 35  1  0  0  0  0
  6  7  1  0  0  0  0
  6 17  2  0  0  0  0
  7  8  1  0  0  0  0
  7 36  1  0  0  0  0
  7 37  1  0  0  0  0
  8  9  1  0  0  0  0
  8 19  1  0  0  0  0
  9 10  2  0  0  0  0
  9 11  2  0  0  0  0
  9 12  1  0  0  0  0
 12 13  1  0  0  0  0
 12 16  1  0  0  0  0
 13 14  1  0  0  0  0
 13 38  1  0  0  0  0
 13 39  1  0  0  0  0
 14 15  3  0  0  0  0
 16 40  1  0  0  0  0
 16 41  1  0  0  0  0
 16 42  1  0  0  0  0
 17 18  1  0  0  0  0
 18 19  1  0  0  0  0
 18 20  1  0  0  0  0
 18 43  1  0  0  0  0
 19 44  1  0  0  0  0
 19 45  1  0  0  0  0
 20 21  2  0  0  0  0
 20 22  1  0  0  0  0
 22 23  1  0  0  0  0
 22 46  1  0  0  0  0
 23 24  2  0  0  0  0
 23 32  1  0  0  0  0
 24 25  1  0  0  0  0
 24 29  1  0  0  0  0
 25 26  2  0  0  0  0
 25 47  1  0  0  0  0
 26 27  1  0  0  0  0
 26 48  1  0  0  0  0
 27 28  2  0  0  0  0
 27 49  1  0  0  0  0
 28 29  1  0  0  0  0
 28 50  1  0  0  0  0
 29 30  2  0  0  0  0
 30 31  1  0  0  0  0
 30 51  1  0  0  0  0
 31 32  2  0  0  0  0
 32 52  1  0  0  0  0
M  END
> <compound_name>
MAT-POS-5cd9ea36-18

> <provenance>
{"isomeric_smiles": "C[N@](CC#N)S(=O)(=O)[N@]1Cc2ccc(cc2[C@@H](C1)C(=O)Nc3cncc4c3cccc4)Cl", "inchi": "InChI=1S/C22H20ClN5O3S/c1-27(9-8-24)32(30,31)28-13-16-6-7-17(23)10-19(16)20(14-28)22(29)26-21-12-25-11-15-4-2-3-5-18(15)21/h2-7,10-12,20H,9,13-14H2,1H3,(H,26,29)/t20-/m1/s1", "inchi_key": "JGGCTEVCEKJRSX-HXUWFJFHSA-N", "fixed_inchi": "InChI=1/C22H20ClN5O3S/c1-27(9-8-24)32(30,31)28-13-16-6-7-17(23)10-19(16)20(14-28)22(29)26-21-12-25-11-15-4-2-3-5-18(15)21/h2-7,10-12,20H,9,13-14H2,1H3,(H,26,29)/t20-/m1/s1/f/h26H", "fixed_inchikey": "JGGCTEVCEKJRSX-CAXFFFRFNA-N"}

> <data_format>
sdf

$$$$
