LIG(A-305)
  -OEChem-06042511323D

 34 35  0     1  0  0  0  0  0999 V2000
    9.5854    1.0486   21.1087 O   0  0  0  0  0  0  0  0  0  0  0  0
    9.1513   -0.0094   21.5536 C   0  0  0  0  0  0  0  0  0  0  0  0
    9.8752   -0.7586   22.6456 C   0  0  1  0  0  0  0  0  0  0  0  0
   11.3202   -1.0226   22.1876 C   0  0  0  0  0  0  0  0  0  0  0  0
   12.2772   -1.5908   23.2316 C   0  0  0  0  0  0  0  0  0  0  0  0
   13.6981   -1.8258   22.8556 C   0  0  0  0  0  0  0  0  0  0  0  0
   13.3532   -0.7159   23.7887 C   0  0  0  0  0  0  0  0  0  0  0  0
    9.8292    0.0953   23.9137 C   0  0  0  0  0  0  0  0  0  0  0  0
    8.0183   -0.6033   21.1226 N   0  0  0  0  0  0  0  0  0  0  0  0
    7.1733   -0.0872   20.1136 C   0  0  0  0  0  0  0  0  0  0  0  0
    5.9513    0.5138   20.4646 C   0  0  0  0  0  0  0  0  0  0  0  0
    5.5103    0.6518   21.9006 C   0  0  0  0  0  0  0  0  0  0  0  0
    5.1764    1.0360   19.4366 C   0  0  0  0  0  0  0  0  0  0  0  0
    5.6264    0.9540   18.1336 C   0  0  0  0  0  0  0  0  0  0  0  0
    6.7894    0.3920   17.7876 N   0  0  0  0  0  0  0  0  0  0  0  0
    7.5393   -0.1191   18.7666 C   0  0  0  0  0  0  0  0  0  0  0  0
    9.3721   -1.7186   22.8328 H   0  0  0  0  0  0  0  0  0  0  0  0
   11.2796   -1.7348   21.3502 H   0  0  0  0  0  0  0  0  0  0  0  0
   11.7385   -0.0676   21.8368 H   0  0  0  0  0  0  0  0  0  0  0  0
   11.8357   -2.3160   23.9310 H   0  0  0  0  0  0  0  0  0  0  0  0
   14.2259   -2.7150   23.2309 H   0  0  0  0  0  0  0  0  0  0  0  0
   14.0412   -1.5993   21.8353 H   0  0  0  0  0  0  0  0  0  0  0  0
   13.4399    0.3293   23.4568 H   0  0  0  0  0  0  0  0  0  0  0  0
   13.6245   -0.7865   24.8524 H   0  0  0  0  0  0  0  0  0  0  0  0
   10.3512   -0.4283   24.7281 H   0  0  0  0  0  0  0  0  0  0  0  0
   10.3216    1.0605   23.7236 H   0  0  0  0  0  0  0  0  0  0  0  0
    8.7817    0.2685   24.2013 H   0  0  0  0  0  0  0  0  0  0  0  0
    7.7580   -1.4705   21.5474 H   0  0  0  0  0  0  0  0  0  0  0  0
    6.2465    1.2526   22.4547 H   0  0  0  0  0  0  0  0  0  0  0  0
    4.5297    1.1488   21.9367 H   0  0  0  0  0  0  0  0  0  0  0  0
    5.4328   -0.3458   22.3577 H   0  0  0  0  0  0  0  0  0  0  0  0
    4.2275    1.5032   19.6552 H   0  0  0  0  0  0  0  0  0  0  0  0
    5.0056    1.3661   17.3518 H   0  0  0  0  0  0  0  0  0  0  0  0
    8.4789   -0.5818   18.5027 H   0  0  0  0  0  0  0  0  0  0  0  0
  1  2  2  0  0  0  0
  2  3  1  0  0  0  0
  2  9  1  0  0  0  0
  3  4  1  0  0  0  0
  3  8  1  0  0  0  0
  3 17  1  0  0  0  0
  4  5  1  0  0  0  0
  4 18  1  0  0  0  0
  4 19  1  0  0  0  0
  5  6  1  0  0  0  0
  5  7  1  0  0  0  0
  5 20  1  0  0  0  0
  6  7  1  0  0  0  0
  6 21  1  0  0  0  0
  6 22  1  0  0  0  0
  7 23  1  0  0  0  0
  7 24  1  0  0  0  0
  8 25  1  0  0  0  0
  8 26  1  0  0  0  0
  8 27  1  0  0  0  0
  9 10  1  0  0  0  0
  9 28  1  0  0  0  0
 10 11  2  0  0  0  0
 10 16  1  0  0  0  0
 11 12  1  0  0  0  0
 11 13  1  0  0  0  0
 12 29  1  0  0  0  0
 12 30  1  0  0  0  0
 12 31  1  0  0  0  0
 13 14  2  0  0  0  0
 13 32  1  0  0  0  0
 14 15  1  0  0  0  0
 14 33  1  0  0  0  0
 15 16  2  0  0  0  0
 16 34  1  0  0  0  0
M  END
> <compound_name>
MAT-POS-590ac91e-5

> <provenance>
{"isomeric_smiles": "Cc1ccncc1NC(=O)[C@H](C)CC2CC2", "inchi": "InChI=1S/C13H18N2O/c1-9-5-6-14-8-12(9)15-13(16)10(2)7-11-3-4-11/h5-6,8,10-11H,3-4,7H2,1-2H3,(H,15,16)/t10-/m1/s1", "inchi_key": "SRXLGHBNKKQZHE-SNVBAGLBSA-N", "fixed_inchi": "InChI=1/C13H18N2O/c1-9-5-6-14-8-12(9)15-13(16)10(2)7-11-3-4-11/h5-6,8,10-11H,3-4,7H2,1-2H3,(H,15,16)/t10-/m1/s1/f/h15H", "fixed_inchikey": "SRXLGHBNKKQZHE-AVDRGBJVNA-N"}

> <data_format>
sdf

$$$$
