LIG(A-306)
  -OEChem-06042511423D

 56 60  0     1  0  0  0  0  0999 V2000
   10.6735    3.2257   24.3240 O   0  0  0  0  0  0  0  0  0  0  0  0
   10.3303    2.0775   24.1043 C   0  0  0  0  0  0  0  0  0  0  0  0
    8.9966    1.6763   24.2404 N   0  0  0  0  0  0  0  0  0  0  0  0
    7.7987    2.7884   24.4711 S   0  0  0  0  0  0  0  0  0  0  0  0
    6.5913    2.0555   24.6895 O   0  0  0  0  0  0  0  0  0  0  0  0
    8.2325    3.7136   25.4696 O   0  0  0  0  0  0  0  0  0  0  0  0
    7.6662    3.6593   22.9204 C   0  0  0  0  0  0  0  0  0  0  0  0
    6.8836    4.9826   22.9640 C   0  0  0  0  0  0  0  0  0  0  0  0
    5.9993    5.4208   21.8482 C   0  0  0  0  0  0  0  0  0  0  0  0
    5.4087    4.9963   23.1722 C   0  0  0  0  0  0  0  0  0  0  0  0
    7.6836    6.0322   23.5441 O   0  0  0  0  0  0  0  0  0  0  0  0
    8.5819    6.7717   22.7037 C   0  0  0  0  0  0  0  0  0  0  0  0
   11.2404    1.0716   23.5313 C   0  0  0  0  0  0  0  0  0  0  0  0
   12.6059    1.3584   23.4636 C   0  0  0  0  0  0  0  0  0  0  0  0
   13.4773    0.4919   22.8312 C   0  0  0  0  0  0  0  0  0  0  0  0
   12.9801   -0.6594   22.2636 C   0  0  0  0  0  0  0  0  0  0  0  0
   14.0770   -1.7505   21.4601 Cl  0  0  0  0  0  0  0  0  0  0  0  0
   11.6315   -0.9681   22.3021 C   0  0  0  0  0  0  0  0  0  0  0  0
   10.7412   -0.0955   22.9335 C   0  0  0  0  0  0  0  0  0  0  0  0
    9.2506   -0.3797   22.9112 C   0  0  1  0  0  0  0  0  0  0  0  0
    8.5729    0.2586   24.1245 C   0  0  0  0  0  0  0  0  0  0  0  0
    8.6517    0.2288   21.6403 C   0  0  0  0  0  0  0  0  0  0  0  0
    9.0786    1.2744   21.1534 O   0  0  0  0  0  0  0  0  0  0  0  0
    7.5804   -0.4288   21.1401 N   0  0  0  0  0  0  0  0  0  0  0  0
    6.7820   -0.0319   20.0451 C   0  0  0  0  0  0  0  0  0  0  0  0
    5.6687    0.8280   20.2985 C   0  0  0  0  0  0  0  0  0  0  0  0
    5.1523    1.0905   21.5938 C   0  0  0  0  0  0  0  0  0  0  0  0
    4.0878    1.9307   21.7681 C   0  0  0  0  0  0  0  0  0  0  0  0
    3.4939    2.5592   20.6802 C   0  0  0  0  0  0  0  0  0  0  0  0
    3.9564    2.3406   19.4141 C   0  0  0  0  0  0  0  0  0  0  0  0
    5.0427    1.4617   19.1846 C   0  0  0  0  0  0  0  0  0  0  0  0
    5.5381    1.1611   17.8921 C   0  0  0  0  0  0  0  0  0  0  0  0
    6.5425    0.3274   17.6559 N   0  0  0  0  0  0  0  0  0  0  0  0
    7.1355   -0.2469   18.7130 C   0  0  0  0  0  0  0  0  0  0  0  0
    8.6847    3.8804   22.5687 H   0  0  0  0  0  0  0  0  0  0  0  0
    7.1661    2.9944   22.2008 H   0  0  0  0  0  0  0  0  0  0  0  0
    5.9746    6.4785   21.5472 H   0  0  0  0  0  0  0  0  0  0  0  0
    5.8759    4.7838   20.9599 H   0  0  0  0  0  0  0  0  0  0  0  0
    4.9527    5.7443   23.8376 H   0  0  0  0  0  0  0  0  0  0  0  0
    4.8541    4.0495   23.2502 H   0  0  0  0  0  0  0  0  0  0  0  0
    9.1088    7.5275   23.3047 H   0  0  0  0  0  0  0  0  0  0  0  0
    9.3143    6.0842   22.2554 H   0  0  0  0  0  0  0  0  0  0  0  0
    8.0112    7.2702   21.9063 H   0  0  0  0  0  0  0  0  0  0  0  0
   12.9845    2.2662   23.9098 H   0  0  0  0  0  0  0  0  0  0  0  0
   14.5329    0.7148   22.7832 H   0  0  0  0  0  0  0  0  0  0  0  0
   11.2694   -1.8781   21.8468 H   0  0  0  0  0  0  0  0  0  0  0  0
    9.0774   -1.4659   22.9188 H   0  0  0  0  0  0  0  0  0  0  0  0
    7.4809    0.2115   24.0011 H   0  0  0  0  0  0  0  0  0  0  0  0
    8.8630   -0.2861   25.0350 H   0  0  0  0  0  0  0  0  0  0  0  0
    7.3278   -1.2842   21.5925 H   0  0  0  0  0  0  0  0  0  0  0  0
    5.6061    0.6203   22.4537 H   0  0  0  0  0  0  0  0  0  0  0  0
    3.7043    2.1079   22.7620 H   0  0  0  0  0  0  0  0  0  0  0  0
    2.6593    3.2263   20.8375 H   0  0  0  0  0  0  0  0  0  0  0  0
    3.4893    2.8428   18.5798 H   0  0  0  0  0  0  0  0  0  0  0  0
    5.0686    1.6408   17.0459 H   0  0  0  0  0  0  0  0  0  0  0  0
    7.9499   -0.9288   18.5177 H   0  0  0  0  0  0  0  0  0  0  0  0
  1  2  2  0  0  0  0
  2  3  1  0  0  0  0
  2 13  1  0  0  0  0
  3  4  1  0  0  0  0
  3 21  1  0  0  0  0
  4  5  2  0  0  0  0
  4  6  2  0  0  0  0
  4  7  1  0  0  0  0
  7  8  1  0  0  0  0
  7 35  1  0  0  0  0
  7 36  1  0  0  0  0
  8  9  1  0  0  0  0
  8 10  1  0  0  0  0
  8 11  1  0  0  0  0
  9 10  1  0  0  0  0
  9 37  1  0  0  0  0
  9 38  1  0  0  0  0
 10 39  1  0  0  0  0
 10 40  1  0  0  0  0
 11 12  1  0  0  0  0
 12 41  1  0  0  0  0
 12 42  1  0  0  0  0
 12 43  1  0  0  0  0
 13 14  2  0  0  0  0
 13 19  1  0  0  0  0
 14 15  1  0  0  0  0
 14 44  1  0  0  0  0
 15 16  2  0  0  0  0
 15 45  1  0  0  0  0
 16 17  1  0  0  0  0
 16 18  1  0  0  0  0
 18 19  2  0  0  0  0
 18 46  1  0  0  0  0
 19 20  1  0  0  0  0
 20 21  1  0  0  0  0
 20 22  1  0  0  0  0
 20 47  1  0  0  0  0
 21 48  1  0  0  0  0
 21 49  1  0  0  0  0
 22 23  2  0  0  0  0
 22 24  1  0  0  0  0
 24 25  1  0  0  0  0
 24 50  1  0  0  0  0
 25 26  2  0  0  0  0
 25 34  1  0  0  0  0
 26 27  1  0  0  0  0
 26 31  1  0  0  0  0
 27 28  2  0  0  0  0
 27 51  1  0  0  0  0
 28 29  1  0  0  0  0
 28 52  1  0  0  0  0
 29 30  2  0  0  0  0
 29 53  1  0  0  0  0
 30 31  1  0  0  0  0
 30 54  1  0  0  0  0
 31 32  2  0  0  0  0
 32 33  1  0  0  0  0
 32 55  1  0  0  0  0
 33 34  2  0  0  0  0
 34 56  1  0  0  0  0
M  END
> <compound_name>
EDJ-MED-968bafd9-1

> <provenance>
{"isomeric_smiles": "COC1(CC1)CS(=O)(=O)N2C[C@H](c3cc(ccc3C2=O)Cl)C(=O)Nc4cncc5c4cccc5", "inchi": "InChI=1S/C24H22ClN3O5S/c1-33-24(8-9-24)14-34(31,32)28-13-20(19-10-16(25)6-7-18(19)23(28)30)22(29)27-21-12-26-11-15-4-2-3-5-17(15)21/h2-7,10-12,20H,8-9,13-14H2,1H3,(H,27,29)/t20-/m1/s1", "inchi_key": "AHKRSFUFGSQVJJ-HXUWFJFHSA-N", "fixed_inchi": "InChI=1/C24H22ClN3O5S/c1-33-24(8-9-24)14-34(31,32)28-13-20(19-10-16(25)6-7-18(19)23(28)30)22(29)27-21-12-26-11-15-4-2-3-5-17(15)21/h2-7,10-12,20H,8-9,13-14H2,1H3,(H,27,29)/t20-/m1/s1/f/h27H", "fixed_inchikey": "AHKRSFUFGSQVJJ-JDOSLRAWNA-N"}

> <data_format>
sdf

$$$$
