LIG(A-306)
  -OEChem-06042511383D

 33 35  0     0  0  0  0  0  0999 V2000
    8.7199    1.0103   20.9644 O   0  0  0  0  0  0  0  0  0  0  0  0
    8.1423    0.0040   21.3797 C   0  0  0  0  0  0  0  0  0  0  0  0
    8.5417   -0.6699   22.6744 C   0  0  0  0  0  0  0  0  0  0  0  0
   10.0408   -0.7446   22.8110 C   0  0  0  0  0  0  0  0  0  0  0  0
   10.7771   -1.7037   22.1299 C   0  0  0  0  0  0  0  0  0  0  0  0
   12.1493   -1.7164   22.2855 C   0  0  0  0  0  0  0  0  0  0  0  0
   10.6106    0.1817   23.6019 N   0  0  0  0  0  0  0  0  0  0  0  0
   11.9427    0.1570   23.7426 C   0  0  0  0  0  0  0  0  0  0  0  0
   12.7311   -0.7900   23.1134 C   0  0  0  0  0  0  0  0  0  0  0  0
   14.4364   -0.8885   23.4399 Cl  0  0  0  0  0  0  0  0  0  0  0  0
    7.0907   -0.5721   20.7597 N   0  0  0  0  0  0  0  0  0  0  0  0
    6.3596   -0.0629   19.6776 C   0  0  0  0  0  0  0  0  0  0  0  0
    5.2749    0.8166   19.9702 C   0  0  0  0  0  0  0  0  0  0  0  0
    4.7452    1.0117   21.2714 C   0  0  0  0  0  0  0  0  0  0  0  0
    3.7124    1.8781   21.4870 C   0  0  0  0  0  0  0  0  0  0  0  0
    3.1584    2.5933   20.4354 C   0  0  0  0  0  0  0  0  0  0  0  0
    3.6261    2.4322   19.1612 C   0  0  0  0  0  0  0  0  0  0  0  0
    4.6898    1.5348   18.8926 C   0  0  0  0  0  0  0  0  0  0  0  0
    5.1955    1.2927   17.5905 C   0  0  0  0  0  0  0  0  0  0  0  0
    6.1763    0.4422   17.3159 N   0  0  0  0  0  0  0  0  0  0  0  0
    6.7363   -0.2101   18.3435 C   0  0  0  0  0  0  0  0  0  0  0  0
    8.1328   -0.0954   23.5187 H   0  0  0  0  0  0  0  0  0  0  0  0
    8.1288   -1.6893   22.6903 H   0  0  0  0  0  0  0  0  0  0  0  0
   10.2876   -2.4246   21.4919 H   0  0  0  0  0  0  0  0  0  0  0  0
   12.7543   -2.4435   21.7642 H   0  0  0  0  0  0  0  0  0  0  0  0
   12.4163    0.9000   24.3671 H   0  0  0  0  0  0  0  0  0  0  0  0
    6.8007   -1.4619   21.1120 H   0  0  0  0  0  0  0  0  0  0  0  0
    5.1652    0.4669   22.1040 H   0  0  0  0  0  0  0  0  0  0  0  0
    3.3229    2.0078   22.4860 H   0  0  0  0  0  0  0  0  0  0  0  0
    2.3499    3.2838   20.6253 H   0  0  0  0  0  0  0  0  0  0  0  0
    3.1816    2.9933   18.3525 H   0  0  0  0  0  0  0  0  0  0  0  0
    4.7536    1.8359   16.7683 H   0  0  0  0  0  0  0  0  0  0  0  0
    7.5374   -0.8997   18.1222 H   0  0  0  0  0  0  0  0  0  0  0  0
  1  2  2  0  0  0  0
  2  3  1  0  0  0  0
  2 11  1  0  0  0  0
  3  4  1  0  0  0  0
  3 22  1  0  0  0  0
  3 23  1  0  0  0  0
  4  5  2  0  0  0  0
  4  7  1  0  0  0  0
  5  6  1  0  0  0  0
  5 24  1  0  0  0  0
  6  9  2  0  0  0  0
  6 25  1  0  0  0  0
  7  8  2  0  0  0  0
  8  9  1  0  0  0  0
  8 26  1  0  0  0  0
  9 10  1  0  0  0  0
 11 12  1  0  0  0  0
 11 27  1  0  0  0  0
 12 13  2  0  0  0  0
 12 21  1  0  0  0  0
 13 14  1  0  0  0  0
 13 18  1  0  0  0  0
 14 15  2  0  0  0  0
 14 28  1  0  0  0  0
 15 16  1  0  0  0  0
 15 29  1  0  0  0  0
 16 17  2  0  0  0  0
 16 30  1  0  0  0  0
 17 18  1  0  0  0  0
 17 31  1  0  0  0  0
 18 19  2  0  0  0  0
 19 20  1  0  0  0  0
 19 32  1  0  0  0  0
 20 21  2  0  0  0  0
 21 33  1  0  0  0  0
M  END
> <compound_name>
RAL-THA-2d450e86-33

> <provenance>
{"isomeric_smiles": "c1ccc2c(c1)cncc2NC(=O)Cc3ccc(cn3)Cl", "inchi": "InChI=1S/C16H12ClN3O/c17-12-5-6-13(19-9-12)7-16(21)20-15-10-18-8-11-3-1-2-4-14(11)15/h1-6,8-10H,7H2,(H,20,21)", "inchi_key": "RMUFMFDOQHTPNN-UHFFFAOYSA-N", "fixed_inchi": "InChI=1/C16H12ClN3O/c17-12-5-6-13(19-9-12)7-16(21)20-15-10-18-8-11-3-1-2-4-14(11)15/h1-6,8-10H,7H2,(H,20,21)/f/h20H", "fixed_inchikey": "RMUFMFDOQHTPNN-UYBDAZJANA-N"}

> <data_format>
sdf

$$$$
