LIG(A-305)
  -OEChem-06042511333D

 35 37  0     0  0  0  0  0  0999 V2000
    9.2268    1.1095   21.0453 O   0  0  0  0  0  0  0  0  0  0  0  0
    8.6698    0.1395   21.5393 C   0  0  0  0  0  0  0  0  0  0  0  0
    9.1729   -0.5175   22.8002 C   0  0  0  0  0  0  0  0  0  0  0  0
   10.4099    0.1335   23.4732 C   0  0  0  0  0  0  0  0  0  0  0  0
   11.2689   -0.8595   22.6671 C   0  0  0  0  0  0  0  0  0  0  0  0
   12.3979   -1.3705   23.4090 C   0  0  0  0  0  0  0  0  0  0  0  0
   13.5949   -0.4965   23.6180 C   0  0  0  0  0  0  0  0  0  0  0  0
   13.6889   -1.6835   22.7189 C   0  0  0  0  0  0  0  0  0  0  0  0
   10.0399   -1.7905   22.6201 C   0  0  0  0  0  0  0  0  0  0  0  0
    7.5528   -0.4145   21.0323 N   0  0  0  0  0  0  0  0  0  0  0  0
    6.8227    0.1165   19.9534 C   0  0  0  0  0  0  0  0  0  0  0  0
    5.6277    0.8155   20.2035 C   0  0  0  0  0  0  0  0  0  0  0  0
    5.1238    1.0615   21.6025 C   0  0  0  0  0  0  0  0  0  0  0  0
    7.2797    0.0066   18.6394 C   0  0  0  0  0  0  0  0  0  0  0  0
    6.6436    0.5506   17.5974 N   0  0  0  0  0  0  0  0  0  0  0  0
    5.4996    1.1956   17.8415 C   0  0  0  0  0  0  0  0  0  0  0  0
    4.9577    1.3415   19.1055 C   0  0  0  0  0  0  0  0  0  0  0  0
    8.3643   -0.6844   23.5272 H   0  0  0  0  0  0  0  0  0  0  0  0
   10.5689    1.1919   23.2194 H   0  0  0  0  0  0  0  0  0  0  0  0
   10.4609    0.0064   24.5647 H   0  0  0  0  0  0  0  0  0  0  0  0
   11.5320   -0.4693   21.6729 H   0  0  0  0  0  0  0  0  0  0  0  0
   12.1551   -2.0304   24.2549 H   0  0  0  0  0  0  0  0  0  0  0  0
   13.6158    0.5179   23.1931 H   0  0  0  0  0  0  0  0  0  0  0  0
   14.1147   -0.4987   24.5875 H   0  0  0  0  0  0  0  0  0  0  0  0
   14.2778   -2.5604   23.0260 H   0  0  0  0  0  0  0  0  0  0  0  0
   13.7789   -1.5437   21.6315 H   0  0  0  0  0  0  0  0  0  0  0  0
    9.8953   -2.3152   21.6642 H   0  0  0  0  0  0  0  0  0  0  0  0
    9.9764   -2.5122   23.4478 H   0  0  0  0  0  0  0  0  0  0  0  0
    7.2197   -1.2597   21.4504 H   0  0  0  0  0  0  0  0  0  0  0  0
    5.8698    1.6426   22.1646 H   0  0  0  0  0  0  0  0  0  0  0  0
    4.1790    1.6231   21.5583 H   0  0  0  0  0  0  0  0  0  0  0  0
    4.9545    0.0981   22.1057 H   0  0  0  0  0  0  0  0  0  0  0  0
    8.1903   -0.5442   18.4558 H   0  0  0  0  0  0  0  0  0  0  0  0
    4.9686    1.6268   17.0057 H   0  0  0  0  0  0  0  0  0  0  0  0
    4.0201    1.8608   19.2384 H   0  0  0  0  0  0  0  0  0  0  0  0
  1  2  2  0  0  0  0
  2  3  1  0  0  0  0
  2 10  1  0  0  0  0
  3  4  1  0  0  0  0
  3  9  1  0  0  0  0
  3 18  1  0  0  0  0
  4  5  1  0  0  0  0
  4 19  1  0  0  0  0
  4 20  1  0  0  0  0
  5  6  1  0  0  0  0
  5  9  1  0  0  0  0
  5 21  1  0  0  0  0
  6  7  1  0  0  0  0
  6  8  1  0  0  0  0
  6 22  1  0  0  0  0
  7  8  1  0  0  0  0
  7 23  1  0  0  0  0
  7 24  1  0  0  0  0
  8 25  1  0  0  0  0
  8 26  1  0  0  0  0
  9 27  1  0  0  0  0
  9 28  1  0  0  0  0
 10 11  1  0  0  0  0
 10 29  1  0  0  0  0
 11 12  2  0  0  0  0
 11 14  1  0  0  0  0
 12 13  1  0  0  0  0
 12 17  1  0  0  0  0
 13 30  1  0  0  0  0
 13 31  1  0  0  0  0
 13 32  1  0  0  0  0
 14 15  2  0  0  0  0
 14 33  1  0  0  0  0
 15 16  1  0  0  0  0
 16 17  2  0  0  0  0
 16 34  1  0  0  0  0
 17 35  1  0  0  0  0
M  END
> <compound_name>
MAT-POS-590ac91e-18

> <provenance>
{"isomeric_smiles": "Cc1ccncc1NC(=O)C2CC(C2)C3CC3", "inchi": "InChI=1S/C14H18N2O/c1-9-4-5-15-8-13(9)16-14(17)12-6-11(7-12)10-2-3-10/h4-5,8,10-12H,2-3,6-7H2,1H3,(H,16,17)/t11-,12-", "inchi_key": "SPZNGMCOZXKTMM-HAQNSBGRSA-N", "fixed_inchi": "InChI=1/C14H18N2O/c1-9-4-5-15-8-13(9)16-14(17)12-6-11(7-12)10-2-3-10/h4-5,8,10-12H,2-3,6-7H2,1H3,(H,16,17)/t11-,12-/f/h16H", "fixed_inchikey": "SPZNGMCOZXKTMM-XQRAYKEZNA-N"}

> <data_format>
sdf

$$$$
