LIG(A-305)
  -OEChem-06042511303D

 29 30  0     0  0  0  0  0  0999 V2000
    9.1855    6.1618   22.6709 C   0  0  0  0  0  0  0  0  0  0  0  0
   10.4666    5.8569   23.4378 C   0  0  0  0  0  0  0  0  0  0  0  0
   12.8566    4.9869   23.3957 C   0  0  0  0  0  0  0  0  0  0  0  0
   13.2306    3.5579   22.9938 C   0  0  0  0  0  0  0  0  0  0  0  0
   12.2416    2.4759   23.4558 C   0  0  0  0  0  0  0  0  0  0  0  0
   11.1186    2.6549   24.2479 C   0  0  0  0  0  0  0  0  0  0  0  0
   11.2156    0.5039   23.7519 C   0  0  0  0  0  0  0  0  0  0  0  0
   10.9836   -0.8911   23.6270 C   0  0  0  0  0  0  0  0  0  0  0  0
   11.8626   -1.6712   22.8800 C   0  0  0  0  0  0  0  0  0  0  0  0
   12.9675   -1.0792   22.2579 C   0  0  0  0  0  0  0  0  0  0  0  0
   13.1935    0.2898   22.3879 C   0  0  0  0  0  0  0  0  0  0  0  0
   12.2996    1.0929   23.1469 C   0  0  0  0  0  0  0  0  0  0  0  0
   13.8325   -1.8362   21.5249 F   0  0  0  0  0  0  0  0  0  0  0  0
   11.6156    5.3238   22.7258 N   0  0  0  0  0  0  0  0  0  0  0  0
   10.5256    1.4799   24.4100 N   0  0  0  0  0  0  0  0  0  0  0  0
   10.5086    6.0449   24.6018 O   0  0  0  0  0  0  0  0  0  0  0  0
    8.4234    6.5436   23.3661 H   0  0  0  0  0  0  0  0  0  0  0  0
    9.3912    6.9195   21.9004 H   0  0  0  0  0  0  0  0  0  0  0  0
    8.8173    5.2425   22.1920 H   0  0  0  0  0  0  0  0  0  0  0  0
   12.7217    5.0461   24.4858 H   0  0  0  0  0  0  0  0  0  0  0  0
   13.6502    5.6828   23.0862 H   0  0  0  0  0  0  0  0  0  0  0  0
   13.2936    3.5170   21.8964 H   0  0  0  0  0  0  0  0  0  0  0  0
   14.2154    3.3279   23.4264 H   0  0  0  0  0  0  0  0  0  0  0  0
   10.7828    3.5935   24.6633 H   0  0  0  0  0  0  0  0  0  0  0  0
   10.1301   -1.3449   24.1087 H   0  0  0  0  0  0  0  0  0  0  0  0
   11.6916   -2.7329   22.7807 H   0  0  0  0  0  0  0  0  0  0  0  0
   14.0504    0.7418   21.9105 H   0  0  0  0  0  0  0  0  0  0  0  0
   11.5480    5.1843   21.7379 H   0  0  0  0  0  0  0  0  0  0  0  0
    9.6885    1.3300   24.9332 H   0  0  0  0  0  0  0  0  0  0  0  0
  1  2  1  0  0  0  0
  1 17  1  0  0  0  0
  1 18  1  0  0  0  0
  1 19  1  0  0  0  0
  2 14  1  0  0  0  0
  2 16  2  0  0  0  0
  3  4  1  0  0  0  0
  3 14  1  0  0  0  0
  3 20  1  0  0  0  0
  3 21  1  0  0  0  0
  4  5  1  0  0  0  0
  4 22  1  0  0  0  0
  4 23  1  0  0  0  0
  5  6  2  0  0  0  0
  5 12  1  0  0  0  0
  6 15  1  0  0  0  0
  6 24  1  0  0  0  0
  7  8  2  0  0  0  0
  7 12  1  0  0  0  0
  7 15  1  0  0  0  0
  8  9  1  0  0  0  0
  8 25  1  0  0  0  0
  9 10  2  0  0  0  0
  9 26  1  0  0  0  0
 10 11  1  0  0  0  0
 10 13  1  0  0  0  0
 11 12  2  0  0  0  0
 11 27  1  0  0  0  0
 14 28  1  0  0  0  0
 15 29  1  0  0  0  0
M  END
> <compound_name>
AAR-POS-d2a4d1df-2

> <provenance>
{"isomeric_smiles": "CC(=O)NCCc1c[nH]c2c1cc(cc2)F", "inchi": "InChI=1S/C12H13FN2O/c1-8(16)14-5-4-9-7-15-12-3-2-10(13)6-11(9)12/h2-3,6-7,15H,4-5H2,1H3,(H,14,16)", "inchi_key": "UDLASALUJLTGJV-UHFFFAOYSA-N", "fixed_inchi": "InChI=1/C12H13FN2O/c1-8(16)14-5-4-9-7-15-12-3-2-10(13)6-11(9)12/h2-3,6-7,15H,4-5H2,1H3,(H,14,16)/f/h14H", "fixed_inchikey": "UDLASALUJLTGJV-YHMJCDSINA-N"}

> <data_format>
sdf

$$$$
