LIG(A-305)
  -OEChem-06042511323D

 34 35  0     0  0  0  0  0  0999 V2000
   14.3262   -1.9848   20.5029 N   0  0  0  0  0  0  0  0  0  0  0  0
   13.6232   -1.5268   21.2768 C   0  0  0  0  0  0  0  0  0  0  0  0
   12.6971   -0.9579   22.2258 C   0  0  0  0  0  0  0  0  0  0  0  0
   13.1560   -0.1429   23.2578 C   0  0  0  0  0  0  0  0  0  0  0  0
   12.2519    0.3961   24.1578 C   0  0  0  0  0  0  0  0  0  0  0  0
   10.8949    0.1590   24.0047 C   0  0  0  0  0  0  0  0  0  0  0  0
   11.3331   -1.2090   22.0878 C   0  0  0  0  0  0  0  0  0  0  0  0
   10.4220   -0.6261   22.9617 C   0  0  0  0  0  0  0  0  0  0  0  0
    8.9410   -0.8192   22.7417 C   0  0  0  0  0  0  0  0  0  0  0  0
    8.4830   -0.0482   21.5227 C   0  0  0  0  0  0  0  0  0  0  0  0
    9.0970    0.9308   21.1097 O   0  0  0  0  0  0  0  0  0  0  0  0
    7.3341   -0.5033   20.9786 N   0  0  0  0  0  0  0  0  0  0  0  0
    6.6451    0.1176   19.9086 C   0  0  0  0  0  0  0  0  0  0  0  0
    5.5010    0.8956   20.1596 C   0  0  0  0  0  0  0  0  0  0  0  0
    5.0059    1.1345   21.5675 C   0  0  0  0  0  0  0  0  0  0  0  0
    7.1221   -0.0433   18.6136 C   0  0  0  0  0  0  0  0  0  0  0  0
    6.5261    0.4976   17.5496 N   0  0  0  0  0  0  0  0  0  0  0  0
    5.4261    1.2275   17.7626 C   0  0  0  0  0  0  0  0  0  0  0  0
    4.8670    1.4705   19.0565 C   0  0  0  0  0  0  0  0  0  0  0  0
    3.7429    2.3014   19.1635 N   0  0  0  0  0  0  0  0  0  0  0  0
   14.2108    0.0676   23.3557 H   0  0  0  0  0  0  0  0  0  0  0  0
   12.6045    1.0016   24.9796 H   0  0  0  0  0  0  0  0  0  0  0  0
   10.1962    0.5905   24.7060 H   0  0  0  0  0  0  0  0  0  0  0  0
   10.9826   -1.8585   21.2993 H   0  0  0  0  0  0  0  0  0  0  0  0
    8.7333   -1.8891   22.5928 H   0  0  0  0  0  0  0  0  0  0  0  0
    8.3935   -0.4588   23.6251 H   0  0  0  0  0  0  0  0  0  0  0  0
    6.9408   -1.3402   21.3593 H   0  0  0  0  0  0  0  0  0  0  0  0
    5.7884    1.6421   22.1507 H   0  0  0  0  0  0  0  0  0  0  0  0
    4.1047    1.7644   21.5372 H   0  0  0  0  0  0  0  0  0  0  0  0
    4.7641    0.1708   22.0395 H   0  0  0  0  0  0  0  0  0  0  0  0
    8.0146   -0.6323   18.4616 H   0  0  0  0  0  0  0  0  0  0  0  0
    4.9300    1.6596   16.9060 H   0  0  0  0  0  0  0  0  0  0  0  0
    3.4791    2.6246   18.2547 H   0  0  0  0  0  0  0  0  0  0  0  0
    3.9612    3.0850   19.7451 H   0  0  0  0  0  0  0  0  0  0  0  0
  1  2  3  0  0  0  0
  2  3  1  0  0  0  0
  3  4  2  0  0  0  0
  3  7  1  0  0  0  0
  4  5  1  0  0  0  0
  4 21  1  0  0  0  0
  5  6  2  0  0  0  0
  5 22  1  0  0  0  0
  6  8  1  0  0  0  0
  6 23  1  0  0  0  0
  7  8  2  0  0  0  0
  7 24  1  0  0  0  0
  8  9  1  0  0  0  0
  9 10  1  0  0  0  0
  9 25  1  0  0  0  0
  9 26  1  0  0  0  0
 10 11  2  0  0  0  0
 10 12  1  0  0  0  0
 12 13  1  0  0  0  0
 12 27  1  0  0  0  0
 13 14  2  0  0  0  0
 13 16  1  0  0  0  0
 14 15  1  0  0  0  0
 14 19  1  0  0  0  0
 15 28  1  0  0  0  0
 15 29  1  0  0  0  0
 15 30  1  0  0  0  0
 16 17  2  0  0  0  0
 16 31  1  0  0  0  0
 17 18  1  0  0  0  0
 18 19  2  0  0  0  0
 18 32  1  0  0  0  0
 19 20  1  0  0  0  0
 20 33  1  0  0  0  0
 20 34  1  0  0  0  0
M  END
> <compound_name>
TRY-UNI-714a760b-19

> <provenance>
{"isomeric_smiles": "Cc1c(cncc1NC(=O)Cc2cccc(c2)C#N)N", "inchi": "InChI=1S/C15H14N4O/c1-10-13(17)8-18-9-14(10)19-15(20)6-11-3-2-4-12(5-11)7-16/h2-5,8-9H,6,17H2,1H3,(H,19,20)", "inchi_key": "MDGSUONMRGWOAQ-UHFFFAOYSA-N", "fixed_inchi": "InChI=1/C15H14N4O/c1-10-13(17)8-18-9-14(10)19-15(20)6-11-3-2-4-12(5-11)7-16/h2-5,8-9H,6,17H2,1H3,(H,19,20)/f/h19H", "fixed_inchikey": "MDGSUONMRGWOAQ-LILDFLRNNA-N"}

> <data_format>
sdf

$$$$
