LIG(A-306)
  -OEChem-06042511413D

 38 40  0     0  0  0  0  0  0999 V2000
    2.1782    2.9488   21.1325 F   0  0  0  0  0  0  0  0  0  0  0  0
    3.2515    2.1911   20.8075 C   0  0  0  0  0  0  0  0  0  0  0  0
    3.9113    1.5435   21.8411 C   0  0  0  0  0  0  0  0  0  0  0  0
    3.4381    1.8011   23.0965 O   0  0  0  0  0  0  0  0  0  0  0  0
    3.6171    0.7966   24.0994 C   0  0  0  0  0  0  0  0  0  0  0  0
    3.6431    2.1048   19.5199 C   0  0  0  0  0  0  0  0  0  0  0  0
    4.7704    1.3181   19.1888 C   0  0  0  0  0  0  0  0  0  0  0  0
    5.4702    0.6453   20.2303 C   0  0  0  0  0  0  0  0  0  0  0  0
    5.0027    0.7766   21.5540 C   0  0  0  0  0  0  0  0  0  0  0  0
    5.2478    1.1558   17.8649 C   0  0  0  0  0  0  0  0  0  0  0  0
    6.3012    0.4182   17.5350 N   0  0  0  0  0  0  0  0  0  0  0  0
    6.9601   -0.1992   18.5247 C   0  0  0  0  0  0  0  0  0  0  0  0
    6.6215   -0.1234   19.8762 C   0  0  0  0  0  0  0  0  0  0  0  0
    7.3794   -0.6963   20.9202 N   0  0  0  0  0  0  0  0  0  0  0  0
    8.4357   -0.1699   21.5857 C   0  0  0  0  0  0  0  0  0  0  0  0
    8.8970    0.9523   21.3623 O   0  0  0  0  0  0  0  0  0  0  0  0
    9.0319   -1.0835   22.6400 C   0  0  0  0  0  0  0  0  0  0  0  0
   10.4597   -0.7293   22.9895 C   0  0  0  0  0  0  0  0  0  0  0  0
   11.5115   -1.2357   22.2308 C   0  0  0  0  0  0  0  0  0  0  0  0
   12.7975   -0.7825   22.4559 C   0  0  0  0  0  0  0  0  0  0  0  0
   14.0931   -1.3842   21.4526 Cl  0  0  0  0  0  0  0  0  0  0  0  0
   13.0797    0.1459   23.4386 C   0  0  0  0  0  0  0  0  0  0  0  0
   12.0398    0.6171   24.2251 C   0  0  0  0  0  0  0  0  0  0  0  0
   10.7418    0.1830   23.9991 C   0  0  0  0  0  0  0  0  0  0  0  0
    3.1877    1.1461   25.0499 H   0  0  0  0  0  0  0  0  0  0  0  0
    3.1105   -0.1282   23.7864 H   0  0  0  0  0  0  0  0  0  0  0  0
    4.6910    0.5993   24.2329 H   0  0  0  0  0  0  0  0  0  0  0  0
    3.1007    2.6318   18.7489 H   0  0  0  0  0  0  0  0  0  0  0  0
    5.5162    0.2624   22.3529 H   0  0  0  0  0  0  0  0  0  0  0  0
    4.7204    1.6654   17.0721 H   0  0  0  0  0  0  0  0  0  0  0  0
    7.8166   -0.8001   18.2567 H   0  0  0  0  0  0  0  0  0  0  0  0
    7.0995   -1.6125   21.2067 H   0  0  0  0  0  0  0  0  0  0  0  0
    8.4201   -1.0131   23.5514 H   0  0  0  0  0  0  0  0  0  0  0  0
    9.0094   -2.1163   22.2621 H   0  0  0  0  0  0  0  0  0  0  0  0
   11.3233   -1.9789   21.4702 H   0  0  0  0  0  0  0  0  0  0  0  0
   14.0893    0.4976   23.5911 H   0  0  0  0  0  0  0  0  0  0  0  0
   12.2409    1.3243   25.0162 H   0  0  0  0  0  0  0  0  0  0  0  0
    9.9394    0.5593   24.6164 H   0  0  0  0  0  0  0  0  0  0  0  0
  1  2  1  0  0  0  0
  2  3  2  0  0  0  0
  2  6  1  0  0  0  0
  3  4  1  0  0  0  0
  3  9  1  0  0  0  0
  4  5  1  0  0  0  0
  5 25  1  0  0  0  0
  5 26  1  0  0  0  0
  5 27  1  0  0  0  0
  6  7  2  0  0  0  0
  6 28  1  0  0  0  0
  7  8  1  0  0  0  0
  7 10  1  0  0  0  0
  8  9  2  0  0  0  0
  8 13  1  0  0  0  0
  9 29  1  0  0  0  0
 10 11  2  0  0  0  0
 10 30  1  0  0  0  0
 11 12  1  0  0  0  0
 12 13  2  0  0  0  0
 12 31  1  0  0  0  0
 13 14  1  0  0  0  0
 14 15  1  0  0  0  0
 14 32  1  0  0  0  0
 15 16  2  0  0  0  0
 15 17  1  0  0  0  0
 17 18  1  0  0  0  0
 17 33  1  0  0  0  0
 17 34  1  0  0  0  0
 18 19  2  0  0  0  0
 18 24  1  0  0  0  0
 19 20  1  0  0  0  0
 19 35  1  0  0  0  0
 20 21  1  0  0  0  0
 20 22  2  0  0  0  0
 22 23  1  0  0  0  0
 22 36  1  0  0  0  0
 23 24  2  0  0  0  0
 23 37  1  0  0  0  0
 24 38  1  0  0  0  0
M  END
> <compound_name>
PET-UNK-b38839dc-1

> <provenance>
{"isomeric_smiles": "COc1cc2c(cc1F)cncc2NC(=O)Cc3cccc(c3)Cl", "inchi": "InChI=1S/C18H14ClFN2O2/c1-24-17-8-14-12(7-15(17)20)9-21-10-16(14)22-18(23)6-11-3-2-4-13(19)5-11/h2-5,7-10H,6H2,1H3,(H,22,23)", "inchi_key": "KXCZEZCRICVIKU-UHFFFAOYSA-N", "fixed_inchi": "InChI=1/C18H14ClFN2O2/c1-24-17-8-14-12(7-15(17)20)9-21-10-16(14)22-18(23)6-11-3-2-4-13(19)5-11/h2-5,7-10H,6H2,1H3,(H,22,23)/f/h22H", "fixed_inchikey": "KXCZEZCRICVIKU-QWOVJGMINA-N"}

> <data_format>
sdf

$$$$
