LIG(A-305)
  -OEChem-06042511373D

 40 41  0     0  0  0  0  0  0999 V2000
    8.9670    0.5411   20.7826 O   0  0  0  0  0  0  0  0  0  0  0  0
    8.1830   -0.1750   21.4005 C   0  0  0  0  0  0  0  0  0  0  0  0
    8.5550   -0.7590   22.7525 C   0  0  0  0  0  0  0  0  0  0  0  0
    9.9870   -0.6589   23.0036 N   0  3  0  0  0  0  0  0  0  0  0  0
   10.2900   -0.8309   24.4416 C   0  0  0  0  0  0  0  0  0  0  0  0
   11.7919   -0.7138   24.7086 C   0  0  0  0  0  0  0  0  0  0  0  0
   10.7191   -1.6538   22.1966 C   0  0  0  0  0  0  0  0  0  0  0  0
   12.2211   -1.5408   22.4086 C   0  0  0  0  0  0  0  0  0  0  0  0
   12.5850   -1.7058   23.8727 C   0  0  0  0  0  0  0  0  0  0  0  0
   14.0780   -1.5987   24.1087 C   0  0  0  0  0  0  0  0  0  0  0  0
    6.9391   -0.4821   20.9765 N   0  0  0  0  0  0  0  0  0  0  0  0
    6.3101    0.1019   19.8515 C   0  0  0  0  0  0  0  0  0  0  0  0
    5.1480    0.8649   20.0334 C   0  0  0  0  0  0  0  0  0  0  0  0
    4.5080    1.0338   21.3884 C   0  0  0  0  0  0  0  0  0  0  0  0
    4.6150    1.4949   18.9124 C   0  0  0  0  0  0  0  0  0  0  0  0
    5.2401    1.3509   17.6854 C   0  0  0  0  0  0  0  0  0  0  0  0
    6.3461    0.6210   17.4975 N   0  0  0  0  0  0  0  0  0  0  0  0
    6.8631    0.0090   18.5685 C   0  0  0  0  0  0  0  0  0  0  0  0
    8.0155   -0.2110   23.5389 H   0  0  0  0  0  0  0  0  0  0  0  0
    8.2614   -1.8188   22.7768 H   0  0  0  0  0  0  0  0  0  0  0  0
   10.2931    0.2524   22.7280 H   0  0  0  0  0  0  0  0  0  0  0  0
    9.7621   -0.0546   25.0148 H   0  0  0  0  0  0  0  0  0  0  0  0
    9.9444   -1.8240   24.7647 H   0  0  0  0  0  0  0  0  0  0  0  0
   12.1208    0.3062   24.4606 H   0  0  0  0  0  0  0  0  0  0  0  0
   11.9821   -0.9116   25.7738 H   0  0  0  0  0  0  0  0  0  0  0  0
   10.3912   -2.6627   22.4877 H   0  0  0  0  0  0  0  0  0  0  0  0
   10.4940   -1.4879   21.1328 H   0  0  0  0  0  0  0  0  0  0  0  0
   12.7256   -2.3238   21.8235 H   0  0  0  0  0  0  0  0  0  0  0  0
   12.5580   -0.5516   22.0649 H   0  0  0  0  0  0  0  0  0  0  0  0
   12.2742   -2.7158   24.1778 H   0  0  0  0  0  0  0  0  0  0  0  0
   14.2903   -1.7246   25.1807 H   0  0  0  0  0  0  0  0  0  0  0  0
   14.5966   -2.3830   23.5378 H   0  0  0  0  0  0  0  0  0  0  0  0
   14.4314   -0.6107   23.7787 H   0  0  0  0  0  0  0  0  0  0  0  0
    6.4271   -1.1689   21.4923 H   0  0  0  0  0  0  0  0  0  0  0  0
    5.2235    1.5086   22.0759 H   0  0  0  0  0  0  0  0  0  0  0  0
    3.6137    1.6675   21.2950 H   0  0  0  0  0  0  0  0  0  0  0  0
    4.2194    0.0484   21.7829 H   0  0  0  0  0  0  0  0  0  0  0  0
    3.7195    2.0922   18.9992 H   0  0  0  0  0  0  0  0  0  0  0  0
    4.8113    1.8558   16.8324 H   0  0  0  0  0  0  0  0  0  0  0  0
    7.7535   -0.5879   18.4369 H   0  0  0  0  0  0  0  0  0  0  0  0
  1  2  2  0  0  0  0
  2  3  1  0  0  0  0
  2 11  1  0  0  0  0
  3  4  1  0  0  0  0
  3 19  1  0  0  0  0
  3 20  1  0  0  0  0
  4  5  1  0  0  0  0
  4  7  1  0  0  0  0
  4 21  1  0  0  0  0
  5  6  1  0  0  0  0
  5 22  1  0  0  0  0
  5 23  1  0  0  0  0
  6  9  1  0  0  0  0
  6 24  1  0  0  0  0
  6 25  1  0  0  0  0
  7  8  1  0  0  0  0
  7 26  1  0  0  0  0
  7 27  1  0  0  0  0
  8  9  1  0  0  0  0
  8 28  1  0  0  0  0
  8 29  1  0  0  0  0
  9 10  1  0  0  0  0
  9 30  1  0  0  0  0
 10 31  1  0  0  0  0
 10 32  1  0  0  0  0
 10 33  1  0  0  0  0
 11 12  1  0  0  0  0
 11 34  1  0  0  0  0
 12 13  2  0  0  0  0
 12 18  1  0  0  0  0
 13 14  1  0  0  0  0
 13 15  1  0  0  0  0
 14 35  1  0  0  0  0
 14 36  1  0  0  0  0
 14 37  1  0  0  0  0
 15 16  2  0  0  0  0
 15 38  1  0  0  0  0
 16 17  1  0  0  0  0
 16 39  1  0  0  0  0
 17 18  2  0  0  0  0
 18 40  1  0  0  0  0
M  CHG  1   4   1
M  END
> <compound_name>
EDJ-MED-3c65e9ce-4

> <provenance>
{"isomeric_smiles": "Cc1ccncc1NC(=O)C[NH+]2CCC(CC2)C", "inchi": "InChI=1S/C14H21N3O/c1-11-4-7-17(8-5-11)10-14(18)16-13-9-15-6-3-12(13)2/h3,6,9,11H,4-5,7-8,10H2,1-2H3,(H,16,18)/p+1", "inchi_key": "BZNRCHXVMKBNNF-UHFFFAOYSA-O", "fixed_inchi": "InChI=1/C14H21N3O/c1-11-4-7-17(8-5-11)10-14(18)16-13-9-15-6-3-12(13)2/h3,6,9,11H,4-5,7-8,10H2,1-2H3,(H,16,18)/p+1/fC14H22N3O/h16-17H/q+1", "fixed_inchikey": "BZNRCHXVMKBNNF-ZRKCPRIANA-O"}

> <data_format>
sdf

$$$$
