LIG(A-306)
  -OEChem-06042511403D

 37 39  0     1  0  0  0  0  0999 V2000
   13.8643   -1.7955   21.6976 Cl  0  0  0  0  0  0  0  0  0  0  0  0
   12.5201   -0.9920   22.4372 C   0  0  0  0  0  0  0  0  0  0  0  0
   12.7183    0.0319   23.3508 C   0  0  0  0  0  0  0  0  0  0  0  0
   14.3051    0.6514   23.6652 Cl  0  0  0  0  0  0  0  0  0  0  0  0
   11.6297    0.6450   23.9501 C   0  0  0  0  0  0  0  0  0  0  0  0
   10.3528    0.2533   23.6008 C   0  0  0  0  0  0  0  0  0  0  0  0
   11.2372   -1.3767   22.0899 C   0  0  0  0  0  0  0  0  0  0  0  0
   10.1366   -0.7395   22.6622 C   0  0  0  0  0  0  0  0  0  0  0  0
    8.7246   -1.1192   22.2442 C   0  0  1  0  0  0  0  0  0  0  0  0
    7.8695   -1.4496   23.3881 N   0  3  0  0  0  0  0  0  0  0  0  0
    8.0705   -0.0859   21.2943 C   0  0  0  0  0  0  0  0  0  0  0  0
    8.4510    1.0929   21.2523 O   0  0  0  0  0  0  0  0  0  0  0  0
    7.1856   -0.6303   20.4344 N   0  0  0  0  0  0  0  0  0  0  0  0
    6.1815   -0.0776   19.6277 C   0  0  0  0  0  0  0  0  0  0  0  0
    5.2408    0.9073   20.0783 C   0  0  0  0  0  0  0  0  0  0  0  0
    4.8083    1.0340   21.4260 C   0  0  0  0  0  0  0  0  0  0  0  0
    3.7723    1.8628   21.7590 C   0  0  0  0  0  0  0  0  0  0  0  0
    3.1079    2.5962   20.7814 C   0  0  0  0  0  0  0  0  0  0  0  0
    3.4936    2.5236   19.4758 C   0  0  0  0  0  0  0  0  0  0  0  0
    4.5694    1.6866   19.0847 C   0  0  0  0  0  0  0  0  0  0  0  0
    4.9319    1.4860   17.7353 C   0  0  0  0  0  0  0  0  0  0  0  0
    5.7987    0.5781   17.3246 N   0  0  0  0  0  0  0  0  0  0  0  0
    6.3589   -0.1972   18.2555 C   0  0  0  0  0  0  0  0  0  0  0  0
   11.7789    1.4229   24.6843 H   0  0  0  0  0  0  0  0  0  0  0  0
    9.5057    0.7317   24.0697 H   0  0  0  0  0  0  0  0  0  0  0  0
   11.0879   -2.1718   21.3744 H   0  0  0  0  0  0  0  0  0  0  0  0
    8.8243   -2.0415   21.6531 H   0  0  0  0  0  0  0  0  0  0  0  0
    7.1828   -2.1207   23.1087 H   0  0  0  0  0  0  0  0  0  0  0  0
    8.4294   -1.8318   24.1232 H   0  0  0  0  0  0  0  0  0  0  0  0
    7.4130   -0.6213   23.7130 H   0  0  0  0  0  0  0  0  0  0  0  0
    7.2608   -1.6245   20.3571 H   0  0  0  0  0  0  0  0  0  0  0  0
    5.3052    0.4670   22.1993 H   0  0  0  0  0  0  0  0  0  0  0  0
    3.4671    1.9488   22.7914 H   0  0  0  0  0  0  0  0  0  0  0  0
    2.2784    3.2293   21.0594 H   0  0  0  0  0  0  0  0  0  0  0  0
    2.9744    3.1095   18.7317 H   0  0  0  0  0  0  0  0  0  0  0  0
    4.4701    2.1163   16.9897 H   0  0  0  0  0  0  0  0  0  0  0  0
    7.0084   -0.9883   17.9107 H   0  0  0  0  0  0  0  0  0  0  0  0
  1  2  1  0  0  0  0
  2  3  2  0  0  0  0
  2  7  1  0  0  0  0
  3  4  1  0  0  0  0
  3  5  1  0  0  0  0
  5  6  2  0  0  0  0
  5 24  1  0  0  0  0
  6  8  1  0  0  0  0
  6 25  1  0  0  0  0
  7  8  2  0  0  0  0
  7 26  1  0  0  0  0
  8  9  1  0  0  0  0
  9 10  1  0  0  0  0
  9 11  1  0  0  0  0
  9 27  1  0  0  0  0
 10 28  1  0  0  0  0
 10 29  1  0  0  0  0
 10 30  1  0  0  0  0
 11 12  2  0  0  0  0
 11 13  1  0  0  0  0
 13 14  1  0  0  0  0
 13 31  1  0  0  0  0
 14 15  2  0  0  0  0
 14 23  1  0  0  0  0
 15 16  1  0  0  0  0
 15 20  1  0  0  0  0
 16 17  2  0  0  0  0
 16 32  1  0  0  0  0
 17 18  1  0  0  0  0
 17 33  1  0  0  0  0
 18 19  2  0  0  0  0
 18 34  1  0  0  0  0
 19 20  1  0  0  0  0
 19 35  1  0  0  0  0
 20 21  2  0  0  0  0
 21 22  1  0  0  0  0
 21 36  1  0  0  0  0
 22 23  2  0  0  0  0
 23 37  1  0  0  0  0
M  CHG  1  10   1
M  END
> <compound_name>
MAT-POS-1f3f1a6f-1

> <provenance>
{"isomeric_smiles": "c1ccc2c(c1)cncc2NC(=O)[C@@H](c3ccc(c(c3)Cl)Cl)[NH3+]", "inchi": "InChI=1S/C17H13Cl2N3O/c18-13-6-5-10(7-14(13)19)16(20)17(23)22-15-9-21-8-11-3-1-2-4-12(11)15/h1-9,16H,20H2,(H,22,23)/p+1/t16-/m1/s1", "inchi_key": "WYMRTHFDSBYEJI-MRXNPFEDSA-O", "fixed_inchi": "InChI=1/C17H13Cl2N3O/c18-13-6-5-10(7-14(13)19)16(20)17(23)22-15-9-21-8-11-3-1-2-4-12(11)15/h1-9,16H,20H2,(H,22,23)/p+1/t16-/m1/s1/fC17H14Cl2N3O/h20,22H/q+1", "fixed_inchikey": "WYMRTHFDSBYEJI-JBNIWRIWNA-O"}

> <data_format>
sdf

$$$$
