LIG(A-305)
  -OEChem-06042511373D

 37 39  0     0  0  0  0  0  0999 V2000
   13.9561   -1.7515   21.3222 Cl  0  0  0  0  0  0  0  0  0  0  0  0
   12.7148   -0.9138   22.2011 C   0  0  0  0  0  0  0  0  0  0  0  0
   13.0665    0.1173   23.0431 C   0  0  0  0  0  0  0  0  0  0  0  0
   12.0723    0.7341   23.7820 C   0  0  0  0  0  0  0  0  0  0  0  0
   10.7534    0.3309   23.6539 C   0  0  0  0  0  0  0  0  0  0  0  0
   11.4059   -1.3130   22.0449 C   0  0  0  0  0  0  0  0  0  0  0  0
   10.4047   -0.6862   22.7778 C   0  0  0  0  0  0  0  0  0  0  0  0
    8.9618   -1.0815   22.5857 C   0  0  0  0  0  0  0  0  0  0  0  0
    8.3458   -0.3066   21.4366 C   0  0  0  0  0  0  0  0  0  0  0  0
    8.8806    0.7235   21.0347 O   0  0  0  0  0  0  0  0  0  0  0  0
    7.1919   -0.7538   20.8925 N   0  0  0  0  0  0  0  0  0  0  0  0
    6.5831   -1.9939   21.3764 C   0  0  0  0  0  0  0  0  0  0  0  0
    6.5429   -0.0849   19.8154 C   0  0  0  0  0  0  0  0  0  0  0  0
    5.4237    0.7279   20.1043 C   0  0  0  0  0  0  0  0  0  0  0  0
    4.8986    0.9178   21.4053 C   0  0  0  0  0  0  0  0  0  0  0  0
    3.7904    1.6886   21.6071 C   0  0  0  0  0  0  0  0  0  0  0  0
    3.1614    2.3165   20.5381 C   0  0  0  0  0  0  0  0  0  0  0  0
    3.6405    2.1775   19.2681 C   0  0  0  0  0  0  0  0  0  0  0  0
    4.7827    1.3757   19.0172 C   0  0  0  0  0  0  0  0  0  0  0  0
    5.3149    1.1638   17.7223 C   0  0  0  0  0  0  0  0  0  0  0  0
    6.3741    0.3980   17.4664 N   0  0  0  0  0  0  0  0  0  0  0  0
    6.9671   -0.2039   18.5005 C   0  0  0  0  0  0  0  0  0  0  0  0
   14.0948    0.4373   23.1250 H   0  0  0  0  0  0  0  0  0  0  0  0
   12.3260    1.5339   24.4619 H   0  0  0  0  0  0  0  0  0  0  0  0
    9.9879    0.8140   24.2429 H   0  0  0  0  0  0  0  0  0  0  0  0
   11.1588   -2.1083   21.3572 H   0  0  0  0  0  0  0  0  0  0  0  0
    8.9078   -2.1580   22.3661 H   0  0  0  0  0  0  0  0  0  0  0  0
    8.4021   -0.8669   23.5079 H   0  0  0  0  0  0  0  0  0  0  0  0
    5.6574   -2.1915   20.8162 H   0  0  0  0  0  0  0  0  0  0  0  0
    7.2851   -2.8282   21.2305 H   0  0  0  0  0  0  0  0  0  0  0  0
    6.3496   -1.8942   22.4467 H   0  0  0  0  0  0  0  0  0  0  0  0
    5.3811    0.4467   22.2488 H   0  0  0  0  0  0  0  0  0  0  0  0
    3.3988    1.8118   22.6061 H   0  0  0  0  0  0  0  0  0  0  0  0
    2.2839    2.9208   20.7147 H   0  0  0  0  0  0  0  0  0  0  0  0
    3.1472    2.6809   18.4498 H   0  0  0  0  0  0  0  0  0  0  0  0
    4.8317    1.6539   16.8900 H   0  0  0  0  0  0  0  0  0  0  0  0
    7.8302   -0.8214   18.3004 H   0  0  0  0  0  0  0  0  0  0  0  0
  1  2  1  0  0  0  0
  2  3  2  0  0  0  0
  2  6  1  0  0  0  0
  3  4  1  0  0  0  0
  3 23  1  0  0  0  0
  4  5  2  0  0  0  0
  4 24  1  0  0  0  0
  5  7  1  0  0  0  0
  5 25  1  0  0  0  0
  6  7  2  0  0  0  0
  6 26  1  0  0  0  0
  7  8  1  0  0  0  0
  8  9  1  0  0  0  0
  8 27  1  0  0  0  0
  8 28  1  0  0  0  0
  9 10  2  0  0  0  0
  9 11  1  0  0  0  0
 11 12  1  0  0  0  0
 11 13  1  0  0  0  0
 12 29  1  0  0  0  0
 12 30  1  0  0  0  0
 12 31  1  0  0  0  0
 13 14  2  0  0  0  0
 13 22  1  0  0  0  0
 14 15  1  0  0  0  0
 14 19  1  0  0  0  0
 15 16  2  0  0  0  0
 15 32  1  0  0  0  0
 16 17  1  0  0  0  0
 16 33  1  0  0  0  0
 17 18  2  0  0  0  0
 17 34  1  0  0  0  0
 18 19  1  0  0  0  0
 18 35  1  0  0  0  0
 19 20  2  0  0  0  0
 20 21  1  0  0  0  0
 20 36  1  0  0  0  0
 21 22  2  0  0  0  0
 22 37  1  0  0  0  0
M  END
> <compound_name>
MAT-POS-bb423b95-7

> <provenance>
{"isomeric_smiles": "CN(c1cncc2c1cccc2)C(=O)Cc3cccc(c3)Cl", "inchi": "InChI=1S/C18H15ClN2O/c1-21(18(22)10-13-5-4-7-15(19)9-13)17-12-20-11-14-6-2-3-8-16(14)17/h2-9,11-12H,10H2,1H3", "inchi_key": "XFUDGCDECOIROA-UHFFFAOYSA-N", "fixed_inchi": "InChI=1/C18H15ClN2O/c1-21(18(22)10-13-5-4-7-15(19)9-13)17-12-20-11-14-6-2-3-8-16(14)17/h2-9,11-12H,10H2,1H3", "fixed_inchikey": "XFUDGCDECOIROA-UHFFFAOYNA-N"}

> <data_format>
sdf

$$$$
