LIG(A-305)
  -OEChem-06042511323D

 33 34  0     0  0  0  0  0  0999 V2000
    6.4780    0.5546   17.5378 N   0  0  0  0  0  0  0  0  0  0  0  0
    7.3761   -0.4696   20.9747 N   0  0  0  0  0  0  0  0  0  0  0  0
    5.5771    0.9574   20.1528 C   0  0  0  0  0  0  0  0  0  0  0  0
   13.2782   -0.1685   23.0974 C   0  0  0  0  0  0  0  0  0  0  0  0
   10.5222   -0.5866   22.8885 C   0  0  0  0  0  0  0  0  0  0  0  0
    4.9330    1.5395   19.0679 C   0  0  0  0  0  0  0  0  0  0  0  0
    8.5291    0.0094   21.4827 C   0  0  0  0  0  0  0  0  0  0  0  0
    6.6871    0.1425   19.8988 C   0  0  0  0  0  0  0  0  0  0  0  0
    7.1240   -0.0485   18.5657 C   0  0  0  0  0  0  0  0  0  0  0  0
   12.4113    0.4254   23.9995 C   0  0  0  0  0  0  0  0  0  0  0  0
   11.3982   -1.2035   22.0025 C   0  0  0  0  0  0  0  0  0  0  0  0
   11.0443    0.2094   23.9005 C   0  0  0  0  0  0  0  0  0  0  0  0
   12.7562   -1.0025   22.1314 C   0  0  0  0  0  0  0  0  0  0  0  0
    5.0841    1.2084   21.5559 C   0  0  0  0  0  0  0  0  0  0  0  0
    8.1830   -0.8104   18.2766 N   0  0  0  0  0  0  0  0  0  0  0  0
    9.1181    0.9845   21.0247 O   0  0  0  0  0  0  0  0  0  0  0  0
    9.0312   -0.7366   22.7036 C   0  0  0  0  0  0  0  0  0  0  0  0
    5.4070    1.3125   17.7989 C   0  0  0  0  0  0  0  0  0  0  0  0
   13.8372   -1.9145   21.1163 Cl  0  0  0  0  0  0  0  0  0  0  0  0
    6.9877   -1.2984   21.3775 H   0  0  0  0  0  0  0  0  0  0  0  0
   14.3408    0.0176   23.1496 H   0  0  0  0  0  0  0  0  0  0  0  0
    4.0664    2.1655   19.2213 H   0  0  0  0  0  0  0  0  0  0  0  0
   12.8006    1.0590   24.7827 H   0  0  0  0  0  0  0  0  0  0  0  0
   11.0164   -1.8378   21.2162 H   0  0  0  0  0  0  0  0  0  0  0  0
   10.3784    0.6651   24.6184 H   0  0  0  0  0  0  0  0  0  0  0  0
    4.2088    1.8738   21.5240 H   0  0  0  0  0  0  0  0  0  0  0  0
    4.8013    0.2527   22.0214 H   0  0  0  0  0  0  0  0  0  0  0  0
    5.8829    1.6815   22.1458 H   0  0  0  0  0  0  0  0  0  0  0  0
    8.5608   -1.1910   19.1207 H   0  0  0  0  0  0  0  0  0  0  0  0
    8.8790   -0.2556   17.8209 H   0  0  0  0  0  0  0  0  0  0  0  0
    8.5219   -0.3413   23.5948 H   0  0  0  0  0  0  0  0  0  0  0  0
    8.7938   -1.8046   22.5890 H   0  0  0  0  0  0  0  0  0  0  0  0
    4.8883    1.7696   16.9691 H   0  0  0  0  0  0  0  0  0  0  0  0
  1  9  1  0  0  0  0
  1 18  2  0  0  0  0
  2  7  1  0  0  0  0
  2  8  1  0  0  0  0
  2 20  1  0  0  0  0
  3  6  2  0  0  0  0
  3  8  1  0  0  0  0
  3 14  1  0  0  0  0
  4 10  2  0  0  0  0
  4 13  1  0  0  0  0
  4 21  1  0  0  0  0
  5 11  1  0  0  0  0
  5 12  2  0  0  0  0
  5 17  1  0  0  0  0
  6 18  1  0  0  0  0
  6 22  1  0  0  0  0
  7 16  2  0  0  0  0
  7 17  1  0  0  0  0
  8  9  2  0  0  0  0
  9 15  1  0  0  0  0
 10 12  1  0  0  0  0
 10 23  1  0  0  0  0
 11 13  2  0  0  0  0
 11 24  1  0  0  0  0
 12 25  1  0  0  0  0
 13 19  1  0  0  0  0
 14 26  1  0  0  0  0
 14 27  1  0  0  0  0
 14 28  1  0  0  0  0
 15 29  1  0  0  0  0
 15 30  1  0  0  0  0
 17 31  1  0  0  0  0
 17 32  1  0  0  0  0
 18 33  1  0  0  0  0
M  END
> <compound_name>
EDG-MED-0da5ad92-18

> <provenance>
{"isomeric_smiles": "Cc1ccnc(c1NC(=O)Cc2cccc(c2)Cl)N", "inchi": "InChI=1S/C14H14ClN3O/c1-9-5-6-17-14(16)13(9)18-12(19)8-10-3-2-4-11(15)7-10/h2-7H,8H2,1H3,(H2,16,17)(H,18,19)", "inchi_key": "HMBNRINOSXPSCN-UHFFFAOYSA-N", "fixed_inchi": "InChI=1/C14H14ClN3O/c1-9-5-6-17-14(16)13(9)18-12(19)8-10-3-2-4-11(15)7-10/h2-7H,8H2,1H3,(H2,16,17)(H,18,19)/f/h18H,16H2", "fixed_inchikey": "HMBNRINOSXPSCN-MZSCVVMKNA-N"}

> <data_format>
sdf

$$$$
