LIG(A-305)
  -OEChem-06042511343D

 38 40  0     0  0  0  0  0  0999 V2000
    8.9681    0.7460   21.0452 O   0  0  0  0  0  0  0  0  0  0  0  0
    8.4722   -0.3300   21.3571 C   0  0  0  0  0  0  0  0  0  0  0  0
    8.9631   -1.1200   22.5562 C   0  0  0  0  0  0  0  0  0  0  0  0
   10.4171   -0.8449   22.8683 C   0  0  0  0  0  0  0  0  0  0  0  0
   10.7769    0.0462   23.8703 C   0  0  0  0  0  0  0  0  0  0  0  0
   12.0999    0.4203   24.0465 C   0  0  0  0  0  0  0  0  0  0  0  0
   13.0890   -0.1017   23.2265 C   0  0  0  0  0  0  0  0  0  0  0  0
   11.4162   -1.4028   22.0784 C   0  0  0  0  0  0  0  0  0  0  0  0
   12.7281   -1.0187   22.2615 C   0  0  0  0  0  0  0  0  0  0  0  0
   13.9533   -1.6846   21.2156 Cl  0  0  0  0  0  0  0  0  0  0  0  0
    7.4223   -0.8771   20.7071 N   0  0  0  0  0  0  0  0  0  0  0  0
    6.6463   -0.2021   19.7390 C   0  0  0  0  0  0  0  0  0  0  0  0
    5.5702    0.6268   20.0969 C   0  0  0  0  0  0  0  0  0  0  0  0
    5.1011    0.6968   21.5338 C   0  0  0  0  0  0  0  0  0  0  0  0
    4.1510    1.8547   21.8228 C   0  0  0  0  0  0  0  0  0  0  0  0
    3.1451    2.0506   20.7047 C   0  0  0  0  0  0  0  0  0  0  0  0
    3.8551    2.3647   19.4077 C   0  0  0  0  0  0  0  0  0  0  0  0
    4.9342    1.3588   19.0848 C   0  0  0  0  0  0  0  0  0  0  0  0
    5.3804    1.1918   17.7929 C   0  0  0  0  0  0  0  0  0  0  0  0
    6.3935    0.3949   17.4370 N   0  0  0  0  0  0  0  0  0  0  0  0
    7.0134   -0.2891   18.4010 C   0  0  0  0  0  0  0  0  0  0  0  0
    8.3556   -0.8478   23.4319 H   0  0  0  0  0  0  0  0  0  0  0  0
    8.8433   -2.1931   22.3460 H   0  0  0  0  0  0  0  0  0  0  0  0
   10.0166    0.4528   24.5207 H   0  0  0  0  0  0  0  0  0  0  0  0
   12.3615    1.1211   24.8255 H   0  0  0  0  0  0  0  0  0  0  0  0
   14.1188    0.2030   23.3410 H   0  0  0  0  0  0  0  0  0  0  0  0
   11.1658   -2.1342   21.3243 H   0  0  0  0  0  0  0  0  0  0  0  0
    7.1783   -1.8220   20.9254 H   0  0  0  0  0  0  0  0  0  0  0  0
    4.5831   -0.2434   21.7744 H   0  0  0  0  0  0  0  0  0  0  0  0
    5.9842    0.8048   22.1807 H   0  0  0  0  0  0  0  0  0  0  0  0
    3.6088    1.6459   22.7568 H   0  0  0  0  0  0  0  0  0  0  0  0
    4.7389    2.7773   21.9384 H   0  0  0  0  0  0  0  0  0  0  0  0
    2.5556    1.1301   20.5817 H   0  0  0  0  0  0  0  0  0  0  0  0
    2.4745    2.8838   20.9620 H   0  0  0  0  0  0  0  0  0  0  0  0
    3.1172    2.3654   18.5920 H   0  0  0  0  0  0  0  0  0  0  0  0
    4.3137    3.3613   19.4883 H   0  0  0  0  0  0  0  0  0  0  0  0
    4.8769    1.7429   17.0124 H   0  0  0  0  0  0  0  0  0  0  0  0
    7.8342   -0.9368   18.1304 H   0  0  0  0  0  0  0  0  0  0  0  0
  1  2  2  0  0  0  0
  2  3  1  0  0  0  0
  2 11  1  0  0  0  0
  3  4  1  0  0  0  0
  3 22  1  0  0  0  0
  3 23  1  0  0  0  0
  4  5  2  0  0  0  0
  4  8  1  0  0  0  0
  5  6  1  0  0  0  0
  5 24  1  0  0  0  0
  6  7  2  0  0  0  0
  6 25  1  0  0  0  0
  7  9  1  0  0  0  0
  7 26  1  0  0  0  0
  8  9  2  0  0  0  0
  8 27  1  0  0  0  0
  9 10  1  0  0  0  0
 11 12  1  0  0  0  0
 11 28  1  0  0  0  0
 12 13  2  0  0  0  0
 12 21  1  0  0  0  0
 13 14  1  0  0  0  0
 13 18  1  0  0  0  0
 14 15  1  0  0  0  0
 14 29  1  0  0  0  0
 14 30  1  0  0  0  0
 15 16  1  0  0  0  0
 15 31  1  0  0  0  0
 15 32  1  0  0  0  0
 16 17  1  0  0  0  0
 16 33  1  0  0  0  0
 16 34  1  0  0  0  0
 17 18  1  0  0  0  0
 17 35  1  0  0  0  0
 17 36  1  0  0  0  0
 18 19  2  0  0  0  0
 19 20  1  0  0  0  0
 19 37  1  0  0  0  0
 20 21  2  0  0  0  0
 21 38  1  0  0  0  0
M  END
> <compound_name>
EDJ-MED-a364e151-1

> <provenance>
{"isomeric_smiles": "c1cc(cc(c1)Cl)CC(=O)Nc2cncc3c2CCCC3", "inchi": "InChI=1S/C17H17ClN2O/c18-14-6-3-4-12(8-14)9-17(21)20-16-11-19-10-13-5-1-2-7-15(13)16/h3-4,6,8,10-11H,1-2,5,7,9H2,(H,20,21)", "inchi_key": "KVBRDRRWOWILOL-UHFFFAOYSA-N", "fixed_inchi": "InChI=1/C17H17ClN2O/c18-14-6-3-4-12(8-14)9-17(21)20-16-11-19-10-13-5-1-2-7-15(13)16/h3-4,6,8,10-11H,1-2,5,7,9H2,(H,20,21)/f/h20H", "fixed_inchikey": "KVBRDRRWOWILOL-UYBDAZJANA-N"}

> <data_format>
sdf

$$$$
