LIG(A-306)
  -OEChem-06042511383D

 40 43  0     1  0  0  0  0  0999 V2000
    9.3381    1.3251   21.0753 O   0  0  0  0  0  0  0  0  0  0  0  0
    8.8842    0.2731   21.5093 C   0  0  0  0  0  0  0  0  0  0  0  0
    9.5934   -0.5029   22.6872 C   0  0  1  0  0  0  0  0  0  0  0  0
   11.0954   -0.2518   22.6460 C   0  0  0  0  0  0  0  0  0  0  0  0
   11.9414   -1.0507   21.8799 C   0  0  0  0  0  0  0  0  0  0  0  0
   13.2934   -0.7695   21.8507 C   0  0  0  0  0  0  0  0  0  0  0  0
   14.3343   -1.7554   20.8575 Cl  0  0  0  0  0  0  0  0  0  0  0  0
   13.8374    0.2865   22.5567 C   0  0  0  0  0  0  0  0  0  0  0  0
   13.0114    1.0844   23.3268 C   0  0  0  0  0  0  0  0  0  0  0  0
   11.6554    0.7992   23.3870 C   0  0  0  0  0  0  0  0  0  0  0  0
   10.9425    1.5421   24.2991 O   0  0  0  0  0  0  0  0  0  0  0  0
    9.5045    1.3900   24.2983 C   0  0  0  0  0  0  0  0  0  0  0  0
    9.0606   -0.0350   24.0453 C   0  0  0  0  0  0  0  0  0  0  0  0
    9.3306   -1.9029   22.5932 O   0  0  0  0  0  0  0  0  0  0  0  0
    7.7792   -0.3110   21.0005 N   0  0  0  0  0  0  0  0  0  0  0  0
    7.0040    0.1190   19.9106 C   0  0  0  0  0  0  0  0  0  0  0  0
    5.8560    0.9309   20.1648 C   0  0  0  0  0  0  0  0  0  0  0  0
    5.4261    1.3028   21.4638 C   0  0  0  0  0  0  0  0  0  0  0  0
    4.3121    2.0747   21.6400 C   0  0  0  0  0  0  0  0  0  0  0  0
    3.5759    2.5146   20.5501 C   0  0  0  0  0  0  0  0  0  0  0  0
    3.9508    2.1867   19.2781 C   0  0  0  0  0  0  0  0  0  0  0  0
    5.1008    1.3888   19.0489 C   0  0  0  0  0  0  0  0  0  0  0  0
    5.5437    1.0189   17.7578 C   0  0  0  0  0  0  0  0  0  0  0  0
    6.6137    0.2720   17.5216 N   0  0  0  0  0  0  0  0  0  0  0  0
    7.3109   -0.1649   18.5795 C   0  0  0  0  0  0  0  0  0  0  0  0
   11.5443   -1.8810   21.3148 H   0  0  0  0  0  0  0  0  0  0  0  0
   14.8975    0.4867   22.5074 H   0  0  0  0  0  0  0  0  0  0  0  0
   13.4179    1.9209   23.8758 H   0  0  0  0  0  0  0  0  0  0  0  0
    9.1177    1.7090   25.2774 H   0  0  0  0  0  0  0  0  0  0  0  0
    9.0844    2.0330   23.5109 H   0  0  0  0  0  0  0  0  0  0  0  0
    9.4542   -0.6879   24.8382 H   0  0  0  0  0  0  0  0  0  0  0  0
    7.9616   -0.0818   24.0437 H   0  0  0  0  0  0  0  0  0  0  0  0
    9.3933   -2.1771   21.6858 H   0  0  0  0  0  0  0  0  0  0  0  0
    7.4761   -1.1496   21.4530 H   0  0  0  0  0  0  0  0  0  0  0  0
    5.9866    0.9716   22.3256 H   0  0  0  0  0  0  0  0  0  0  0  0
    4.0018    2.3449   22.6386 H   0  0  0  0  0  0  0  0  0  0  0  0
    2.6975    3.1226   20.7087 H   0  0  0  0  0  0  0  0  0  0  0  0
    3.3667    2.5378   18.4402 H   0  0  0  0  0  0  0  0  0  0  0  0
    4.9735    1.3672   16.9092 H   0  0  0  0  0  0  0  0  0  0  0  0
    8.1752   -0.7834   18.3872 H   0  0  0  0  0  0  0  0  0  0  0  0
  1  2  2  0  0  0  0
  2  3  1  0  0  0  0
  2 15  1  0  0  0  0
  3  4  1  0  0  0  0
  3 13  1  0  0  0  0
  3 14  1  0  0  0  0
  4  5  2  0  0  0  0
  4 10  1  0  0  0  0
  5  6  1  0  0  0  0
  5 26  1  0  0  0  0
  6  7  1  0  0  0  0
  6  8  2  0  0  0  0
  8  9  1  0  0  0  0
  8 27  1  0  0  0  0
  9 10  2  0  0  0  0
  9 28  1  0  0  0  0
 10 11  1  0  0  0  0
 11 12  1  0  0  0  0
 12 13  1  0  0  0  0
 12 29  1  0  0  0  0
 12 30  1  0  0  0  0
 13 31  1  0  0  0  0
 13 32  1  0  0  0  0
 14 33  1  0  0  0  0
 15 16  1  0  0  0  0
 15 34  1  0  0  0  0
 16 17  2  0  0  0  0
 16 25  1  0  0  0  0
 17 18  1  0  0  0  0
 17 22  1  0  0  0  0
 18 19  2  0  0  0  0
 18 35  1  0  0  0  0
 19 20  1  0  0  0  0
 19 36  1  0  0  0  0
 20 21  2  0  0  0  0
 20 37  1  0  0  0  0
 21 22  1  0  0  0  0
 21 38  1  0  0  0  0
 22 23  2  0  0  0  0
 23 24  1  0  0  0  0
 23 39  1  0  0  0  0
 24 25  2  0  0  0  0
 25 40  1  0  0  0  0
M  END
> <compound_name>
EDG-MED-971238d3-1

> <provenance>
{"isomeric_smiles": "c1ccc2c(c1)cncc2NC(=O)[C@@]3(CCOc4c3cc(cc4)Cl)O", "inchi": "InChI=1S/C19H15ClN2O3/c20-13-5-6-17-15(9-13)19(24,7-8-25-17)18(23)22-16-11-21-10-12-3-1-2-4-14(12)16/h1-6,9-11,24H,7-8H2,(H,22,23)/t19-/m0/s1", "inchi_key": "QFIUTQBIZOZBNY-IBGZPJMESA-N", "fixed_inchi": "InChI=1/C19H15ClN2O3/c20-13-5-6-17-15(9-13)19(24,7-8-25-17)18(23)22-16-11-21-10-12-3-1-2-4-14(12)16/h1-6,9-11,24H,7-8H2,(H,22,23)/t19-/m0/s1/f/h22H", "fixed_inchikey": "QFIUTQBIZOZBNY-ZTDWRTLANA-N"}

> <data_format>
sdf

$$$$
