LIG(A-306)
  -OEChem-06042511423D

 41 43  0     0  0  0  0  0  0999 V2000
   14.0779   -1.2804   21.4743 Cl  0  0  0  0  0  0  0  0  0  0  0  0
   12.7274   -0.7732   22.4514 C   0  0  0  0  0  0  0  0  0  0  0  0
   12.9378    0.1222   23.4828 C   0  0  0  0  0  0  0  0  0  0  0  0
   11.8629    0.4777   24.2829 C   0  0  0  0  0  0  0  0  0  0  0  0
   10.5987   -0.0291   24.0188 C   0  0  0  0  0  0  0  0  0  0  0  0
   11.4751   -1.2870   22.1792 C   0  0  0  0  0  0  0  0  0  0  0  0
   10.3853   -0.8893   22.9496 C   0  0  0  0  0  0  0  0  0  0  0  0
    8.9843   -1.2870   22.5431 C   0  0  0  0  0  0  0  0  0  0  0  0
    8.4111   -0.3425   21.5030 C   0  0  0  0  0  0  0  0  0  0  0  0
    8.9195    0.7545   21.2783 O   0  0  0  0  0  0  0  0  0  0  0  0
    7.3267   -0.8138   20.8480 N   0  0  0  0  0  0  0  0  0  0  0  0
    6.6357   -0.2158   19.7752 C   0  0  0  0  0  0  0  0  0  0  0  0
    7.0300   -0.3160   18.4396 C   0  0  0  0  0  0  0  0  0  0  0  0
    6.4501    0.3264   17.4160 N   0  0  0  0  0  0  0  0  0  0  0  0
    5.4230    1.1174   17.6933 C   0  0  0  0  0  0  0  0  0  0  0  0
    5.5198    0.6253   20.0728 C   0  0  0  0  0  0  0  0  0  0  0  0
    4.9040    1.3231   18.9955 C   0  0  0  0  0  0  0  0  0  0  0  0
    3.8261    2.1962   19.2733 C   0  0  0  0  0  0  0  0  0  0  0  0
    3.3709    2.3569   20.5473 C   0  0  0  0  0  0  0  0  0  0  0  0
    5.0027    0.8110   21.3800 C   0  0  0  0  0  0  0  0  0  0  0  0
    3.9347    1.6533   21.6105 C   0  0  0  0  0  0  0  0  0  0  0  0
    3.3254    1.7873   22.8844 N   0  0  0  0  0  0  0  0  0  0  0  0
    3.6765    1.2116   24.0675 C   0  0  0  0  0  0  0  0  0  0  0  0
    4.7694    0.6811   24.2614 O   0  0  0  0  0  0  0  0  0  0  0  0
    2.6100    1.2377   25.1250 C   0  0  0  0  0  0  0  0  0  0  0  0
   13.9191    0.5363   23.6617 H   0  0  0  0  0  0  0  0  0  0  0  0
   12.0102    1.1511   25.1144 H   0  0  0  0  0  0  0  0  0  0  0  0
    9.7699    0.2489   24.6529 H   0  0  0  0  0  0  0  0  0  0  0  0
   11.3415   -1.9933   21.3733 H   0  0  0  0  0  0  0  0  0  0  0  0
    9.0098   -2.3042   22.1251 H   0  0  0  0  0  0  0  0  0  0  0  0
    8.3374   -1.2723   23.4327 H   0  0  0  0  0  0  0  0  0  0  0  0
    6.9716   -1.6939   21.1631 H   0  0  0  0  0  0  0  0  0  0  0  0
    7.8665   -0.9607   18.2138 H   0  0  0  0  0  0  0  0  0  0  0  0
    4.9514    1.6388   16.8735 H   0  0  0  0  0  0  0  0  0  0  0  0
    3.3588    2.7414   18.4665 H   0  0  0  0  0  0  0  0  0  0  0  0
    2.5580    3.0422   20.7371 H   0  0  0  0  0  0  0  0  0  0  0  0
    5.4522    0.2843   22.2088 H   0  0  0  0  0  0  0  0  0  0  0  0
    2.5269    2.3883   22.9185 H   0  0  0  0  0  0  0  0  0  0  0  0
    2.9765    0.7291   26.0288 H   0  0  0  0  0  0  0  0  0  0  0  0
    2.3598    2.2811   25.3675 H   0  0  0  0  0  0  0  0  0  0  0  0
    1.7123    0.7224   24.7529 H   0  0  0  0  0  0  0  0  0  0  0  0
  1  2  1  0  0  0  0
  2  3  2  0  0  0  0
  2  6  1  0  0  0  0
  3  4  1  0  0  0  0
  3 26  1  0  0  0  0
  4  5  2  0  0  0  0
  4 27  1  0  0  0  0
  5  7  1  0  0  0  0
  5 28  1  0  0  0  0
  6  7  2  0  0  0  0
  6 29  1  0  0  0  0
  7  8  1  0  0  0  0
  8  9  1  0  0  0  0
  8 30  1  0  0  0  0
  8 31  1  0  0  0  0
  9 10  2  0  0  0  0
  9 11  1  0  0  0  0
 11 12  1  0  0  0  0
 11 32  1  0  0  0  0
 12 13  2  0  0  0  0
 12 16  1  0  0  0  0
 13 14  1  0  0  0  0
 13 33  1  0  0  0  0
 14 15  2  0  0  0  0
 15 17  1  0  0  0  0
 15 34  1  0  0  0  0
 16 17  2  0  0  0  0
 16 20  1  0  0  0  0
 17 18  1  0  0  0  0
 18 19  2  0  0  0  0
 18 35  1  0  0  0  0
 19 21  1  0  0  0  0
 19 36  1  0  0  0  0
 20 21  2  0  0  0  0
 20 37  1  0  0  0  0
 21 22  1  0  0  0  0
 22 23  1  0  0  0  0
 22 38  1  0  0  0  0
 23 24  2  0  0  0  0
 23 25  1  0  0  0  0
 25 39  1  0  0  0  0
 25 40  1  0  0  0  0
 25 41  1  0  0  0  0
M  END
> <compound_name>
MAT-POS-90fd5f68-22

> <provenance>
{"isomeric_smiles": "CC(=O)Nc1ccc2cncc(c2c1)NC(=O)Cc3cccc(c3)Cl", "inchi": "InChI=1S/C19H16ClN3O2/c1-12(24)22-16-6-5-14-10-21-11-18(17(14)9-16)23-19(25)8-13-3-2-4-15(20)7-13/h2-7,9-11H,8H2,1H3,(H,22,24)(H,23,25)", "inchi_key": "CKGZDMAYPZCRDY-UHFFFAOYSA-N", "fixed_inchi": "InChI=1/C19H16ClN3O2/c1-12(24)22-16-6-5-14-10-21-11-18(17(14)9-16)23-19(25)8-13-3-2-4-15(20)7-13/h2-7,9-11H,8H2,1H3,(H,22,24)(H,23,25)/f/h22-23H", "fixed_inchikey": "CKGZDMAYPZCRDY-PDJAEHLQNA-N"}

> <data_format>
sdf

$$$$
