LIG(A-306)
  -OEChem-06042511413D

 51 54  0     1  0  0  0  0  0999 V2000
   13.9759   -1.5642   21.4069 Cl  0  0  0  0  0  0  0  0  0  0  0  0
   12.7758   -0.7624   22.3751 C   0  0  0  0  0  0  0  0  0  0  0  0
   11.4500   -1.1329   22.2506 C   0  0  0  0  0  0  0  0  0  0  0  0
   13.1741    0.2003   23.2719 C   0  0  0  0  0  0  0  0  0  0  0  0
   12.2305    0.7742   24.1010 C   0  0  0  0  0  0  0  0  0  0  0  0
   10.8867    0.4155   24.0195 C   0  0  0  0  0  0  0  0  0  0  0  0
    9.9363    1.0275   25.0207 C   0  0  0  0  0  0  0  0  0  0  0  0
    8.5328    0.8475   24.6301 N   0  0  3  0  0  0  0  0  0  0  0  0
    7.4273    1.9765   24.9100 S   0  0  0  0  0  0  0  0  0  0  0  0
    6.1640    1.4432   24.5116 O   0  0  0  0  0  0  0  0  0  0  0  0
    7.6165    2.4014   26.2591 O   0  0  0  0  0  0  0  0  0  0  0  0
    7.8928    3.2272   23.9812 N   0  0  0  0  0  0  0  0  0  0  0  0
    7.2331    3.5140   22.7027 C   0  0  0  0  0  0  0  0  0  0  0  0
    6.4709    4.8024   22.7594 C   0  0  0  0  0  0  0  0  0  0  0  0
   10.4855   -0.5269   23.0588 C   0  0  0  0  0  0  0  0  0  0  0  0
    9.0137   -0.8397   22.8536 C   0  0  1  0  0  0  0  0  0  0  0  0
    8.2038   -0.4881   24.1005 C   0  0  0  0  0  0  0  0  0  0  0  0
    8.5041   -0.0704   21.6305 C   0  0  0  0  0  0  0  0  0  0  0  0
    9.0762    0.9325   21.2034 O   0  0  0  0  0  0  0  0  0  0  0  0
    7.3699   -0.5722   21.0803 N   0  0  0  0  0  0  0  0  0  0  0  0
    6.6537   -0.0721   19.9679 C   0  0  0  0  0  0  0  0  0  0  0  0
    5.4865    0.7242   20.2031 C   0  0  0  0  0  0  0  0  0  0  0  0
    4.9233    0.9440   21.4894 C   0  0  0  0  0  0  0  0  0  0  0  0
    3.8310    1.7496   21.6516 C   0  0  0  0  0  0  0  0  0  0  0  0
    3.2481    2.3803   20.5589 C   0  0  0  0  0  0  0  0  0  0  0  0
    3.7404    2.1875   19.2998 C   0  0  0  0  0  0  0  0  0  0  0  0
    4.8646    1.3502   19.0844 C   0  0  0  0  0  0  0  0  0  0  0  0
    5.4218    1.1114   17.8011 C   0  0  0  0  0  0  0  0  0  0  0  0
    6.4911    0.3532   17.5810 N   0  0  0  0  0  0  0  0  0  0  0  0
    7.0801   -0.2114   18.6451 C   0  0  0  0  0  0  0  0  0  0  0  0
   11.1616   -1.8864   21.5327 H   0  0  0  0  0  0  0  0  0  0  0  0
   14.2093    0.5032   23.3272 H   0  0  0  0  0  0  0  0  0  0  0  0
   12.5396    1.5137   24.8249 H   0  0  0  0  0  0  0  0  0  0  0  0
   10.0963    0.5509   25.9991 H   0  0  0  0  0  0  0  0  0  0  0  0
   10.1477    2.1042   25.0985 H   0  0  0  0  0  0  0  0  0  0  0  0
    8.2161    4.0303   24.4816 H   0  0  0  0  0  0  0  0  0  0  0  0
    7.9963    3.5838   21.9136 H   0  0  0  0  0  0  0  0  0  0  0  0
    6.5365    2.6958   22.4677 H   0  0  0  0  0  0  0  0  0  0  0  0
    5.9897    4.9873   21.7877 H   0  0  0  0  0  0  0  0  0  0  0  0
    5.7017    4.7391   23.5432 H   0  0  0  0  0  0  0  0  0  0  0  0
    7.1616    5.6270   22.9891 H   0  0  0  0  0  0  0  0  0  0  0  0
    8.9064   -1.9169   22.6583 H   0  0  0  0  0  0  0  0  0  0  0  0
    8.4117   -1.2371   24.8789 H   0  0  0  0  0  0  0  0  0  0  0  0
    7.1342   -0.5125   23.8447 H   0  0  0  0  0  0  0  0  0  0  0  0
    6.9960   -1.3929   21.5124 H   0  0  0  0  0  0  0  0  0  0  0  0
    5.3651    0.4671   22.3518 H   0  0  0  0  0  0  0  0  0  0  0  0
    3.4171    1.8973   22.6382 H   0  0  0  0  0  0  0  0  0  0  0  0
    2.3976    3.0292   20.7070 H   0  0  0  0  0  0  0  0  0  0  0  0
    3.2694    2.6773   18.4604 H   0  0  0  0  0  0  0  0  0  0  0  0
    4.9468    1.5752   16.9492 H   0  0  0  0  0  0  0  0  0  0  0  0
    7.9528   -0.8218   18.4652 H   0  0  0  0  0  0  0  0  0  0  0  0
  1  2  1  0  0  0  0
  2  3  2  0  0  0  0
  2  4  1  0  0  0  0
  3 15  1  0  0  0  0
  3 31  1  0  0  0  0
  4  5  2  0  0  0  0
  4 32  1  0  0  0  0
  5  6  1  0  0  0  0
  5 33  1  0  0  0  0
  6  7  1  0  0  0  0
  6 15  2  0  0  0  0
  7  8  1  0  0  0  0
  7 34  1  0  0  0  0
  7 35  1  0  0  0  0
  8  9  1  0  0  0  0
  8 17  1  0  0  0  0
  9 10  2  0  0  0  0
  9 11  2  0  0  0  0
  9 12  1  0  0  0  0
 12 13  1  0  0  0  0
 12 36  1  0  0  0  0
 13 14  1  0  0  0  0
 13 37  1  0  0  0  0
 13 38  1  0  0  0  0
 14 39  1  0  0  0  0
 14 40  1  0  0  0  0
 14 41  1  0  0  0  0
 15 16  1  0  0  0  0
 16 17  1  0  0  0  0
 16 18  1  0  0  0  0
 16 42  1  0  0  0  0
 17 43  1  0  0  0  0
 17 44  1  0  0  0  0
 18 19  2  0  0  0  0
 18 20  1  0  0  0  0
 20 21  1  0  0  0  0
 20 45  1  0  0  0  0
 21 22  2  0  0  0  0
 21 30  1  0  0  0  0
 22 23  1  0  0  0  0
 22 27  1  0  0  0  0
 23 24  2  0  0  0  0
 23 46  1  0  0  0  0
 24 25  1  0  0  0  0
 24 47  1  0  0  0  0
 25 26  2  0  0  0  0
 25 48  1  0  0  0  0
 26 27  1  0  0  0  0
 26 49  1  0  0  0  0
 27 28  2  0  0  0  0
 28 29  1  0  0  0  0
 28 50  1  0  0  0  0
 29 30  2  0  0  0  0
 30 51  1  0  0  0  0
M  END
> <compound_name>
MAT-POS-5cd9ea36-17

> <provenance>
{"isomeric_smiles": "CCNS(=O)(=O)N1Cc2ccc(cc2[C@@H](C1)C(=O)Nc3cncc4c3cccc4)Cl", "inchi": "InChI=1S/C21H21ClN4O3S/c1-2-24-30(28,29)26-12-15-7-8-16(22)9-18(15)19(13-26)21(27)25-20-11-23-10-14-5-3-4-6-17(14)20/h3-11,19,24H,2,12-13H2,1H3,(H,25,27)/t19-/m1/s1", "inchi_key": "BOQXHOIRFSIWNF-LJQANCHMSA-N", "fixed_inchi": "InChI=1/C21H21ClN4O3S/c1-2-24-30(28,29)26-12-15-7-8-16(22)9-18(15)19(13-26)21(27)25-20-11-23-10-14-5-3-4-6-17(14)20/h3-11,19,24H,2,12-13H2,1H3,(H,25,27)/t19-/m1/s1/f/h25H", "fixed_inchikey": "BOQXHOIRFSIWNF-FFLKVTLYNA-N"}

> <data_format>
sdf

$$$$
