LIG(A-306)
  -OEChem-06042511413D

 54 57  0     0  0  0  0  0  0999 V2000
    8.6686    0.9173   21.2552 O   0  0  0  0  0  0  0  0  0  0  0  0
    8.1943   -0.2054   21.4056 C   0  0  0  0  0  0  0  0  0  0  0  0
    8.7655   -1.1848   22.4104 C   0  0  0  0  0  0  0  0  0  0  0  0
   10.1705   -0.7908   22.8000 C   0  0  0  0  0  0  0  0  0  0  0  0
   10.4000    0.2320   23.7142 C   0  0  0  0  0  0  0  0  0  0  0  0
   11.6880    0.6608   23.9940 C   0  0  0  0  0  0  0  0  0  0  0  0
   12.7715    0.0718   23.3616 C   0  0  0  0  0  0  0  0  0  0  0  0
   11.2610   -1.3960   22.1845 C   0  0  0  0  0  0  0  0  0  0  0  0
   12.5370   -0.9471   22.4614 C   0  0  0  0  0  0  0  0  0  0  0  0
   13.8773   -1.6476   21.6024 Cl  0  0  0  0  0  0  0  0  0  0  0  0
    7.1440   -0.6646   20.6986 N   0  0  0  0  0  0  0  0  0  0  0  0
    6.4291    0.0101   19.6952 C   0  0  0  0  0  0  0  0  0  0  0  0
    5.4453    0.9672   20.0925 C   0  0  0  0  0  0  0  0  0  0  0  0
    4.8287    1.7557   19.0807 C   0  0  0  0  0  0  0  0  0  0  0  0
    5.2207    1.5168   17.7383 C   0  0  0  0  0  0  0  0  0  0  0  0
    6.1217    0.6117   17.3704 N   0  0  0  0  0  0  0  0  0  0  0  0
    6.6994   -0.1145   18.3355 C   0  0  0  0  0  0  0  0  0  0  0  0
    5.0272    1.1542   21.4346 C   0  0  0  0  0  0  0  0  0  0  0  0
    4.0552    2.0557   21.7495 C   0  0  0  0  0  0  0  0  0  0  0  0
    3.4515    2.8151   20.7566 C   0  0  0  0  0  0  0  0  0  0  0  0
    3.8328    2.6950   19.4429 C   0  0  0  0  0  0  0  0  0  0  0  0
    2.4133    3.5798   21.2339 O   0  0  0  0  0  0  0  0  0  0  0  0
    1.9083    4.6511   20.4185 C   0  0  0  0  0  0  0  0  0  0  0  0
    1.4820    5.7774   21.3315 C   0  0  0  0  0  0  0  0  0  0  0  0
    2.5220    6.1241   22.3079 N   0  3  0  0  0  0  0  0  0  0  0  0
    2.8871    7.5398   22.4191 C   0  0  0  0  0  0  0  0  0  0  0  0
    3.8296    7.5767   23.6080 C   0  0  0  0  0  0  0  0  0  0  0  0
    3.4043    6.3911   24.4761 C   0  0  0  0  0  0  0  0  0  0  0  0
    2.2876    5.7085   23.6969 C   0  0  0  0  0  0  0  0  0  0  0  0
    8.1304   -1.1925   23.3085 H   0  0  0  0  0  0  0  0  0  0  0  0
    8.7828   -2.1904   21.9649 H   0  0  0  0  0  0  0  0  0  0  0  0
    9.5631    0.6984   24.2127 H   0  0  0  0  0  0  0  0  0  0  0  0
   11.8477    1.4562   24.7068 H   0  0  0  0  0  0  0  0  0  0  0  0
   13.7782    0.4033   23.5691 H   0  0  0  0  0  0  0  0  0  0  0  0
   11.1105   -2.2125   21.4939 H   0  0  0  0  0  0  0  0  0  0  0  0
    6.8380   -1.5923   20.9124 H   0  0  0  0  0  0  0  0  0  0  0  0
    4.7562    2.1096   16.9642 H   0  0  0  0  0  0  0  0  0  0  0  0
    7.4297   -0.8519   18.0367 H   0  0  0  0  0  0  0  0  0  0  0  0
    5.4867    0.5725   22.2200 H   0  0  0  0  0  0  0  0  0  0  0  0
    3.7524    2.1802   22.7787 H   0  0  0  0  0  0  0  0  0  0  0  0
    3.3741    3.3157   18.6874 H   0  0  0  0  0  0  0  0  0  0  0  0
    2.6958    5.0028   19.7358 H   0  0  0  0  0  0  0  0  0  0  0  0
    1.0459    4.2993   19.8333 H   0  0  0  0  0  0  0  0  0  0  0  0
    1.2605    6.6645   20.7199 H   0  0  0  0  0  0  0  0  0  0  0  0
    0.5755    5.4700   21.8736 H   0  0  0  0  0  0  0  0  0  0  0  0
    3.3495    5.6469   22.0122 H   0  0  0  0  0  0  0  0  0  0  0  0
    3.3934    7.8870   21.5064 H   0  0  0  0  0  0  0  0  0  0  0  0
    1.9981    8.1607   22.6040 H   0  0  0  0  0  0  0  0  0  0  0  0
    4.8732    7.4626   23.2797 H   0  0  0  0  0  0  0  0  0  0  0  0
    3.7203    8.5214   24.1608 H   0  0  0  0  0  0  0  0  0  0  0  0
    4.2475    5.7010   24.6269 H   0  0  0  0  0  0  0  0  0  0  0  0
    3.0366    6.7397   25.4524 H   0  0  0  0  0  0  0  0  0  0  0  0
    2.3538    4.6148   23.7948 H   0  0  0  0  0  0  0  0  0  0  0  0
    1.3016    6.0489   24.0464 H   0  0  0  0  0  0  0  0  0  0  0  0
  1  2  2  0  0  0  0
  2  3  1  0  0  0  0
  2 11  1  0  0  0  0
  3  4  1  0  0  0  0
  3 30  1  0  0  0  0
  3 31  1  0  0  0  0
  4  5  2  0  0  0  0
  4  8  1  0  0  0  0
  5  6  1  0  0  0  0
  5 32  1  0  0  0  0
  6  7  2  0  0  0  0
  6 33  1  0  0  0  0
  7  9  1  0  0  0  0
  7 34  1  0  0  0  0
  8  9  2  0  0  0  0
  8 35  1  0  0  0  0
  9 10  1  0  0  0  0
 11 12  1  0  0  0  0
 11 36  1  0  0  0  0
 12 13  2  0  0  0  0
 12 17  1  0  0  0  0
 13 14  1  0  0  0  0
 13 18  1  0  0  0  0
 14 15  2  0  0  0  0
 14 21  1  0  0  0  0
 15 16  1  0  0  0  0
 15 37  1  0  0  0  0
 16 17  2  0  0  0  0
 17 38  1  0  0  0  0
 18 19  2  0  0  0  0
 18 39  1  0  0  0  0
 19 20  1  0  0  0  0
 19 40  1  0  0  0  0
 20 21  2  0  0  0  0
 20 22  1  0  0  0  0
 21 41  1  0  0  0  0
 22 23  1  0  0  0  0
 23 24  1  0  0  0  0
 23 42  1  0  0  0  0
 23 43  1  0  0  0  0
 24 25  1  0  0  0  0
 24 44  1  0  0  0  0
 24 45  1  0  0  0  0
 25 26  1  0  0  0  0
 25 29  1  0  0  0  0
 25 46  1  0  0  0  0
 26 27  1  0  0  0  0
 26 47  1  0  0  0  0
 26 48  1  0  0  0  0
 27 28  1  0  0  0  0
 27 49  1  0  0  0  0
 27 50  1  0  0  0  0
 28 29  1  0  0  0  0
 28 51  1  0  0  0  0
 28 52  1  0  0  0  0
 29 53  1  0  0  0  0
 29 54  1  0  0  0  0
M  CHG  1  25   1
M  END
> <compound_name>
MAT-POS-90fd5f68-14

> <provenance>
{"isomeric_smiles": "c1cc(cc(c1)Cl)CC(=O)Nc2cncc3c2ccc(c3)OCC[NH+]4CCCC4", "inchi": "InChI=1S/C23H24ClN3O2/c24-19-5-3-4-17(12-19)13-23(28)26-22-16-25-15-18-14-20(6-7-21(18)22)29-11-10-27-8-1-2-9-27/h3-7,12,14-16H,1-2,8-11,13H2,(H,26,28)/p+1", "inchi_key": "MIPAPSMIEZDAGL-UHFFFAOYSA-O", "fixed_inchi": "InChI=1/C23H24ClN3O2/c24-19-5-3-4-17(12-19)13-23(28)26-22-16-25-15-18-14-20(6-7-21(18)22)29-11-10-27-8-1-2-9-27/h3-7,12,14-16H,1-2,8-11,13H2,(H,26,28)/p+1/fC23H25ClN3O2/h26-27H/q+1", "fixed_inchikey": "MIPAPSMIEZDAGL-ITFXMKCONA-O"}

> <data_format>
sdf

$$$$
