LIG(A-305)
  -OEChem-06042511363D

 43 45  0     1  0  0  0  0  0999 V2000
    6.2908    0.7660   25.3899 F   0  0  0  0  0  0  0  0  0  0  0  0
    5.7238   -0.2891   25.9718 C   0  0  0  0  0  0  0  0  0  0  0  0
    4.4877    0.0736   26.3016 F   0  0  0  0  0  0  0  0  0  0  0  0
    5.6032   -1.2221   25.0287 F   0  0  0  0  0  0  0  0  0  0  0  0
    6.4987   -0.7721   27.1599 C   0  0  2  0  0  0  0  0  0  0  0  0
    6.9823    0.2759   28.1170 C   0  0  0  0  0  0  0  0  0  0  0  0
    7.9486   -0.6978   27.5202 C   0  0  2  0  0  0  0  0  0  0  0  0
    9.1646   -0.1906   26.9024 N   0  0  0  0  0  0  0  0  0  0  0  0
    9.7039   -0.2714   25.6215 C   0  0  0  0  0  0  0  0  0  0  0  0
   10.9969    0.2099   25.4238 C   0  0  0  0  0  0  0  0  0  0  0  0
   11.5891    0.0351   24.1879 C   0  0  0  0  0  0  0  0  0  0  0  0
   13.3101    0.2934   24.0362 Cl  0  0  0  0  0  0  0  0  0  0  0  0
   10.8974   -0.5050   23.1197 C   0  0  0  0  0  0  0  0  0  0  0  0
    9.0062   -0.8354   24.5564 C   0  0  0  0  0  0  0  0  0  0  0  0
    9.5925   -0.9502   23.3005 C   0  0  0  0  0  0  0  0  0  0  0  0
    8.8458   -1.6143   22.1643 C   0  0  0  0  0  0  0  0  0  0  0  0
    8.1518   -0.6134   21.2622 C   0  0  0  0  0  0  0  0  0  0  0  0
    8.6296    0.4887   21.0364 O   0  0  0  0  0  0  0  0  0  0  0  0
    6.9890   -1.0406   20.7350 N   0  0  0  0  0  0  0  0  0  0  0  0
    6.2680   -0.3316   19.7509 C   0  0  0  0  0  0  0  0  0  0  0  0
    5.0878    0.3521   20.0947 C   0  0  0  0  0  0  0  0  0  0  0  0
    4.5476    0.3569   21.5036 C   0  0  0  0  0  0  0  0  0  0  0  0
    6.7502   -0.2214   18.4490 C   0  0  0  0  0  0  0  0  0  0  0  0
    6.1553    0.5125   17.5029 N   0  0  0  0  0  0  0  0  0  0  0  0
    5.0251    1.1453   17.8367 C   0  0  0  0  0  0  0  0  0  0  0  0
    4.4639    1.0911   19.0946 C   0  0  0  0  0  0  0  0  0  0  0  0
    5.9871   -1.5970   27.6773 H   0  0  0  0  0  0  0  0  0  0  0  0
    7.0057    1.3322   27.8107 H   0  0  0  0  0  0  0  0  0  0  0  0
    6.7220    0.2091   29.1837 H   0  0  0  0  0  0  0  0  0  0  0  0
    8.1902   -1.4801   28.2548 H   0  0  0  0  0  0  0  0  0  0  0  0
    9.7377    0.3293   27.5360 H   0  0  0  0  0  0  0  0  0  0  0  0
   11.5258    0.7100   26.2216 H   0  0  0  0  0  0  0  0  0  0  0  0
   11.3678   -0.5806   22.1505 H   0  0  0  0  0  0  0  0  0  0  0  0
    7.9967   -1.1883   24.7075 H   0  0  0  0  0  0  0  0  0  0  0  0
    9.5616   -2.1940   21.5630 H   0  0  0  0  0  0  0  0  0  0  0  0
    8.0893   -2.2916   22.5875 H   0  0  0  0  0  0  0  0  0  0  0  0
    6.6151   -1.9095   21.0591 H   0  0  0  0  0  0  0  0  0  0  0  0
    5.2929    0.7989   22.1812 H   0  0  0  0  0  0  0  0  0  0  0  0
    3.6222    0.9506   21.5393 H   0  0  0  0  0  0  0  0  0  0  0  0
    4.3333   -0.6753   21.8175 H   0  0  0  0  0  0  0  0  0  0  0  0
    7.6518   -0.7568   18.1901 H   0  0  0  0  0  0  0  0  0  0  0  0
    4.5249    1.7306   17.0794 H   0  0  0  0  0  0  0  0  0  0  0  0
    3.5450    1.6192   19.3026 H   0  0  0  0  0  0  0  0  0  0  0  0
  1  2  1  0  0  0  0
  2  3  1  0  0  0  0
  2  4  1  0  0  0  0
  2  5  1  0  0  0  0
  5  6  1  0  0  0  0
  5  7  1  0  0  0  0
  5 27  1  0  0  0  0
  6  7  1  0  0  0  0
  6 28  1  0  0  0  0
  6 29  1  0  0  0  0
  7  8  1  0  0  0  0
  7 30  1  0  0  0  0
  8  9  1  0  0  0  0
  8 31  1  0  0  0  0
  9 10  2  0  0  0  0
  9 14  1  0  0  0  0
 10 11  1  0  0  0  0
 10 32  1  0  0  0  0
 11 12  1  0  0  0  0
 11 13  2  0  0  0  0
 13 15  1  0  0  0  0
 13 33  1  0  0  0  0
 14 15  2  0  0  0  0
 14 34  1  0  0  0  0
 15 16  1  0  0  0  0
 16 17  1  0  0  0  0
 16 35  1  0  0  0  0
 16 36  1  0  0  0  0
 17 18  2  0  0  0  0
 17 19  1  0  0  0  0
 19 20  1  0  0  0  0
 19 37  1  0  0  0  0
 20 21  2  0  0  0  0
 20 23  1  0  0  0  0
 21 22  1  0  0  0  0
 21 26  1  0  0  0  0
 22 38  1  0  0  0  0
 22 39  1  0  0  0  0
 22 40  1  0  0  0  0
 23 24  2  0  0  0  0
 23 41  1  0  0  0  0
 24 25  1  0  0  0  0
 25 26  2  0  0  0  0
 25 42  1  0  0  0  0
 26 43  1  0  0  0  0
M  END
> <compound_name>
MAT-POS-044491d2-3

> <provenance>
{"isomeric_smiles": "Cc1ccncc1NC(=O)Cc2cc(cc(c2)Cl)N[C@H]3C[C@H]3C(F)(F)F", "inchi": "InChI=1S/C18H17ClF3N3O/c1-10-2-3-23-9-16(10)25-17(26)6-11-4-12(19)7-13(5-11)24-15-8-14(15)18(20,21)22/h2-5,7,9,14-15,24H,6,8H2,1H3,(H,25,26)/t14-,15+/m1/s1", "inchi_key": "ROXLXWPALVCDCD-CABCVRRESA-N", "fixed_inchi": "InChI=1/C18H17ClF3N3O/c1-10-2-3-23-9-16(10)25-17(26)6-11-4-12(19)7-13(5-11)24-15-8-14(15)18(20,21)22/h2-5,7,9,14-15,24H,6,8H2,1H3,(H,25,26)/t14-,15+/m1/s1/f/h25H", "fixed_inchikey": "ROXLXWPALVCDCD-JQSZXAGKNA-N"}

> <data_format>
sdf

$$$$
