LIG(A-305)
  -OEChem-06042511323D

 33 34  0     1  0  0  0  0  0999 V2000
    6.5873    0.4950   17.2900 N   0  0  0  0  0  0  0  0  0  0  0  0
    5.6387    0.6661   19.8901 C   0  0  0  0  0  0  0  0  0  0  0  0
   13.1340    0.0473   23.2043 C   0  0  0  0  0  0  0  0  0  0  0  0
    8.9169    1.0867   21.0778 O   0  0  0  0  0  0  0  0  0  0  0  0
   10.4019   -0.4954   22.9806 C   0  0  0  0  0  0  0  0  0  0  0  0
    4.9626    1.3081   18.8632 C   0  0  0  0  0  0  0  0  0  0  0  0
    8.4258    0.0178   21.4318 C   0  0  0  0  0  0  0  0  0  0  0  0
    6.8036   -0.0791   19.6160 C   0  0  0  0  0  0  0  0  0  0  0  0
    7.2204   -0.1271   18.2890 C   0  0  0  0  0  0  0  0  0  0  0  0
   12.2192    0.7164   24.0024 C   0  0  0  0  0  0  0  0  0  0  0  0
   11.3188   -1.1915   22.2025 C   0  0  0  0  0  0  0  0  0  0  0  0
   10.8641    0.4375   23.8985 C   0  0  0  0  0  0  0  0  0  0  0  0
   12.6658   -0.9206   22.3363 C   0  0  0  0  0  0  0  0  0  0  0  0
    4.1109    1.4432   21.5673 C   0  0  0  0  0  0  0  0  0  0  0  0
    7.4806   -0.6401   20.7209 N   0  0  0  0  0  0  0  0  0  0  0  0
    5.2928    0.7201   21.2122 O   0  0  0  0  0  0  0  0  0  0  0  0
    8.3958   -1.9552   22.9018 O   0  0  0  0  0  0  0  0  0  0  0  0
    8.9169   -0.6443   22.7168 C   0  0  1  0  0  0  0  0  0  0  0  0
   13.9136   -1.9927   21.3892 Br  0  0  0  0  0  0  0  0  0  0  0  0
    5.4835    1.1921   17.5892 C   0  0  0  0  0  0  0  0  0  0  0  0
   14.1878    0.2771   23.2595 H   0  0  0  0  0  0  0  0  0  0  0  0
    4.0641    1.8766   19.0524 H   0  0  0  0  0  0  0  0  0  0  0  0
    8.1054   -0.6994   18.0532 H   0  0  0  0  0  0  0  0  0  0  0  0
   12.5628    1.4581   24.7082 H   0  0  0  0  0  0  0  0  0  0  0  0
   10.9805   -1.9380   21.4991 H   0  0  0  0  0  0  0  0  0  0  0  0
   10.1620    0.9514   24.5382 H   0  0  0  0  0  0  0  0  0  0  0  0
    3.9656    1.3969   22.6567 H   0  0  0  0  0  0  0  0  0  0  0  0
    4.2160    2.4929   21.2559 H   0  0  0  0  0  0  0  0  0  0  0  0
    3.2420    0.9961   21.0622 H   0  0  0  0  0  0  0  0  0  0  0  0
    7.2492   -1.5742   20.9928 H   0  0  0  0  0  0  0  0  0  0  0  0
    8.8274   -2.3666   23.6413 H   0  0  0  0  0  0  0  0  0  0  0  0
    8.4494   -0.0448   23.5118 H   0  0  0  0  0  0  0  0  0  0  0  0
    4.9684    1.6948   16.7839 H   0  0  0  0  0  0  0  0  0  0  0  0
  1  9  1  0  0  0  0
  1 20  2  0  0  0  0
  2  6  2  0  0  0  0
  2  8  1  0  0  0  0
  2 16  1  0  0  0  0
  3 10  2  0  0  0  0
  3 13  1  0  0  0  0
  3 21  1  0  0  0  0
  4  7  2  0  0  0  0
  5 11  1  0  0  0  0
  5 12  2  0  0  0  0
  5 18  1  0  0  0  0
  6 20  1  0  0  0  0
  6 22  1  0  0  0  0
  7 15  1  0  0  0  0
  7 18  1  0  0  0  0
  8  9  2  0  0  0  0
  8 15  1  0  0  0  0
  9 23  1  0  0  0  0
 10 12  1  0  0  0  0
 10 24  1  0  0  0  0
 11 13  2  0  0  0  0
 11 25  1  0  0  0  0
 12 26  1  0  0  0  0
 13 19  1  0  0  0  0
 14 16  1  0  0  0  0
 14 27  1  0  0  0  0
 14 28  1  0  0  0  0
 14 29  1  0  0  0  0
 15 30  1  0  0  0  0
 17 18  1  0  0  0  0
 17 31  1  0  0  0  0
 18 32  1  0  0  0  0
 20 33  1  0  0  0  0
M  END
> <compound_name>
BAR-COM-0f94fc3d-23

> <provenance>
{"isomeric_smiles": "COc1ccncc1NC(=O)[C@H](c2cccc(c2)Br)O", "inchi": "InChI=1S/C14H13BrN2O3/c1-20-12-5-6-16-8-11(12)17-14(19)13(18)9-3-2-4-10(15)7-9/h2-8,13,18H,1H3,(H,17,19)/t13-/m0/s1", "inchi_key": "SXIRQVINYJTTGB-ZDUSSCGKSA-N", "fixed_inchi": "InChI=1/C14H13BrN2O3/c1-20-12-5-6-16-8-11(12)17-14(19)13(18)9-3-2-4-10(15)7-9/h2-8,13,18H,1H3,(H,17,19)/t13-/m0/s1/f/h17H", "fixed_inchikey": "SXIRQVINYJTTGB-YXSUSBOTNA-N"}

> <data_format>
sdf

$$$$
