LIG(A-306)
  -OEChem-06042511383D

 34 36  0     0  0  0  0  0  0999 V2000
    9.2992    0.9476   21.0421 O   0  0  0  0  0  0  0  0  0  0  0  0
    8.7742   -0.0964   21.4409 C   0  0  0  0  0  0  0  0  0  0  0  0
    9.4396   -0.9839   22.4734 C   0  0  0  0  0  0  0  0  0  0  0  0
   10.8843   -0.6321   22.7389 C   0  0  0  0  0  0  0  0  0  0  0  0
   11.2266    0.4151   23.5741 C   0  0  0  0  0  0  0  0  0  0  0  0
   10.2260    1.0900   24.1857 F   0  0  0  0  0  0  0  0  0  0  0  0
   12.5235    0.8325   23.7710 C   0  0  0  0  0  0  0  0  0  0  0  0
   13.5381    0.1969   23.0797 C   0  0  0  0  0  0  0  0  0  0  0  0
   11.9130   -1.2647   22.0446 C   0  0  0  0  0  0  0  0  0  0  0  0
   13.2019   -0.8192   22.2206 C   0  0  0  0  0  0  0  0  0  0  0  0
   14.1777   -1.3582   21.4388 F   0  0  0  0  0  0  0  0  0  0  0  0
    7.5832   -0.5518   20.9939 N   0  0  0  0  0  0  0  0  0  0  0  0
    6.7961   -0.0130   19.9557 C   0  0  0  0  0  0  0  0  0  0  0  0
    5.6658    0.7936   20.2989 C   0  0  0  0  0  0  0  0  0  0  0  0
    5.2475    1.0428   21.6312 C   0  0  0  0  0  0  0  0  0  0  0  0
    4.1792    1.8566   21.8904 C   0  0  0  0  0  0  0  0  0  0  0  0
    3.4812    2.4592   20.8555 C   0  0  0  0  0  0  0  0  0  0  0  0
    3.8436    2.2500   19.5564 C   0  0  0  0  0  0  0  0  0  0  0  0
    4.9408    1.4103   19.2410 C   0  0  0  0  0  0  0  0  0  0  0  0
    5.3821    1.1770   17.9138 C   0  0  0  0  0  0  0  0  0  0  0  0
    6.4296    0.4265   17.5979 N   0  0  0  0  0  0  0  0  0  0  0  0
    7.1056   -0.1479   18.6029 C   0  0  0  0  0  0  0  0  0  0  0  0
    8.8820   -0.8959   23.4176 H   0  0  0  0  0  0  0  0  0  0  0  0
    9.3955   -2.0236   22.1171 H   0  0  0  0  0  0  0  0  0  0  0  0
   12.7441    1.6408   24.4523 H   0  0  0  0  0  0  0  0  0  0  0  0
   14.5684    0.4923   23.2122 H   0  0  0  0  0  0  0  0  0  0  0  0
   11.7021   -2.0898   21.3804 H   0  0  0  0  0  0  0  0  0  0  0  0
    7.2188   -1.3629   21.4513 H   0  0  0  0  0  0  0  0  0  0  0  0
    5.7794    0.5839   22.4515 H   0  0  0  0  0  0  0  0  0  0  0  0
    3.8763    2.0315   22.9123 H   0  0  0  0  0  0  0  0  0  0  0  0
    2.6419    3.1010   21.0795 H   0  0  0  0  0  0  0  0  0  0  0  0
    3.2896    2.7281   18.7622 H   0  0  0  0  0  0  0  0  0  0  0  0
    4.8305    1.6398   17.1089 H   0  0  0  0  0  0  0  0  0  0  0  0
    7.9554   -0.7624   18.3449 H   0  0  0  0  0  0  0  0  0  0  0  0
  1  2  2  0  0  0  0
  2  3  1  0  0  0  0
  2 12  1  0  0  0  0
  3  4  1  0  0  0  0
  3 23  1  0  0  0  0
  3 24  1  0  0  0  0
  4  5  2  0  0  0  0
  4  9  1  0  0  0  0
  5  6  1  0  0  0  0
  5  7  1  0  0  0  0
  7  8  2  0  0  0  0
  7 25  1  0  0  0  0
  8 10  1  0  0  0  0
  8 26  1  0  0  0  0
  9 10  2  0  0  0  0
  9 27  1  0  0  0  0
 10 11  1  0  0  0  0
 12 13  1  0  0  0  0
 12 28  1  0  0  0  0
 13 14  2  0  0  0  0
 13 22  1  0  0  0  0
 14 15  1  0  0  0  0
 14 19  1  0  0  0  0
 15 16  2  0  0  0  0
 15 29  1  0  0  0  0
 16 17  1  0  0  0  0
 16 30  1  0  0  0  0
 17 18  2  0  0  0  0
 17 31  1  0  0  0  0
 18 19  1  0  0  0  0
 18 32  1  0  0  0  0
 19 20  2  0  0  0  0
 20 21  1  0  0  0  0
 20 33  1  0  0  0  0
 21 22  2  0  0  0  0
 22 34  1  0  0  0  0
M  END
> <compound_name>
RAL-THA-2d450e86-26

> <provenance>
{"isomeric_smiles": "c1ccc2c(c1)cncc2NC(=O)Cc3cc(ccc3F)F", "inchi": "InChI=1S/C17H12F2N2O/c18-13-5-6-15(19)12(7-13)8-17(22)21-16-10-20-9-11-3-1-2-4-14(11)16/h1-7,9-10H,8H2,(H,21,22)", "inchi_key": "HVJFVWJFZCGHBH-UHFFFAOYSA-N", "fixed_inchi": "InChI=1/C17H12F2N2O/c18-13-5-6-15(19)12(7-13)8-17(22)21-16-10-20-9-11-3-1-2-4-14(11)16/h1-7,9-10H,8H2,(H,21,22)/f/h21H", "fixed_inchikey": "HVJFVWJFZCGHBH-PKSOQXRJNA-N"}

> <data_format>
sdf

$$$$
