LIG(A-306)
  -OEChem-06042511403D

 54 57  0     1  0  0  0  0  0999 V2000
   14.0190   -1.6160   21.3534 Cl  0  0  0  0  0  0  0  0  0  0  0  0
   12.8490   -0.7914   22.3498 C   0  0  0  0  0  0  0  0  0  0  0  0
   11.5142   -1.1421   22.2563 C   0  0  0  0  0  0  0  0  0  0  0  0
   13.2773    0.1934   23.2046 C   0  0  0  0  0  0  0  0  0  0  0  0
   12.3529    0.8233   24.0150 C   0  0  0  0  0  0  0  0  0  0  0  0
   10.9991    0.5036   23.9527 C   0  0  0  0  0  0  0  0  0  0  0  0
   10.0719    1.2278   24.9035 C   0  0  0  0  0  0  0  0  0  0  0  0
    8.6513    0.9702   24.6375 N   0  0  3  0  0  0  0  0  0  0  0  0
    7.4495    1.9347   25.0726 S   0  0  0  0  0  0  0  0  0  0  0  0
    6.2432    1.3929   24.5492 O   0  0  0  0  0  0  0  0  0  0  0  0
    7.5953    2.1563   26.4687 O   0  0  0  0  0  0  0  0  0  0  0  0
    7.7753    3.3058   24.3114 N   0  0  3  0  0  0  0  0  0  0  0  0
    8.2959    4.4257   25.1019 C   0  0  0  0  0  0  0  0  0  0  0  0
    7.5566    3.5905   22.8809 C   0  0  0  0  0  0  0  0  0  0  0  0
    6.3293    4.4353   22.6434 C   0  0  0  0  0  0  0  0  0  0  0  0
   10.5698   -0.4759   23.0418 C   0  0  0  0  0  0  0  0  0  0  0  0
    9.0911   -0.7679   22.8787 C   0  0  1  0  0  0  0  0  0  0  0  0
    8.3233   -0.3786   24.1408 C   0  0  0  0  0  0  0  0  0  0  0  0
    8.5665   -0.0196   21.6495 C   0  0  0  0  0  0  0  0  0  0  0  0
    9.1315    0.9795   21.1964 O   0  0  0  0  0  0  0  0  0  0  0  0
    7.4143   -0.5205   21.1303 N   0  0  0  0  0  0  0  0  0  0  0  0
    6.6761   -0.0104   20.0370 C   0  0  0  0  0  0  0  0  0  0  0  0
    5.5420    0.8257   20.3004 C   0  0  0  0  0  0  0  0  0  0  0  0
    4.9967    1.0334   21.5946 C   0  0  0  0  0  0  0  0  0  0  0  0
    3.8885    1.8119   21.7747 C   0  0  0  0  0  0  0  0  0  0  0  0
    3.2756    2.4317   20.6930 C   0  0  0  0  0  0  0  0  0  0  0  0
    3.7659    2.2680   19.4280 C   0  0  0  0  0  0  0  0  0  0  0  0
    4.9021    1.4547   19.1937 C   0  0  0  0  0  0  0  0  0  0  0  0
    5.4133    1.1921   17.8983 C   0  0  0  0  0  0  0  0  0  0  0  0
    6.4465    0.3970   17.6530 N   0  0  0  0  0  0  0  0  0  0  0  0
    7.0525   -0.1776   18.7030 C   0  0  0  0  0  0  0  0  0  0  0  0
   11.2039   -1.9254   21.5806 H   0  0  0  0  0  0  0  0  0  0  0  0
   14.3202    0.4712   23.2430 H   0  0  0  0  0  0  0  0  0  0  0  0
   12.6867    1.5789   24.7107 H   0  0  0  0  0  0  0  0  0  0  0  0
   10.2997    0.9023   25.9292 H   0  0  0  0  0  0  0  0  0  0  0  0
   10.2537    2.3089   24.8130 H   0  0  0  0  0  0  0  0  0  0  0  0
    8.4692    5.2902   24.4442 H   0  0  0  0  0  0  0  0  0  0  0  0
    7.5657    4.6968   25.8787 H   0  0  0  0  0  0  0  0  0  0  0  0
    9.2434    4.1303   25.5764 H   0  0  0  0  0  0  0  0  0  0  0  0
    8.4345    4.1247   22.4889 H   0  0  0  0  0  0  0  0  0  0  0  0
    7.4382    2.6371   22.3451 H   0  0  0  0  0  0  0  0  0  0  0  0
    6.2123    4.6179   21.5650 H   0  0  0  0  0  0  0  0  0  0  0  0
    5.4422    3.9082   23.0243 H   0  0  0  0  0  0  0  0  0  0  0  0
    6.4385    5.3960   23.1680 H   0  0  0  0  0  0  0  0  0  0  0  0
    8.9622   -1.8473   22.7106 H   0  0  0  0  0  0  0  0  0  0  0  0
    8.5594   -1.1072   24.9304 H   0  0  0  0  0  0  0  0  0  0  0  0
    7.2466   -0.4151   23.9183 H   0  0  0  0  0  0  0  0  0  0  0  0
    7.0480   -1.3405   21.5700 H   0  0  0  0  0  0  0  0  0  0  0  0
    5.4651    0.5690   22.4498 H   0  0  0  0  0  0  0  0  0  0  0  0
    3.4851    1.9467   22.7675 H   0  0  0  0  0  0  0  0  0  0  0  0
    2.4036    3.0485   20.8531 H   0  0  0  0  0  0  0  0  0  0  0  0
    3.2827    2.7634   18.5989 H   0  0  0  0  0  0  0  0  0  0  0  0
    4.9313    1.6692   17.0577 H   0  0  0  0  0  0  0  0  0  0  0  0
    7.8971   -0.8194   18.5006 H   0  0  0  0  0  0  0  0  0  0  0  0
  1  2  1  0  0  0  0
  2  3  2  0  0  0  0
  2  4  1  0  0  0  0
  3 16  1  0  0  0  0
  3 32  1  0  0  0  0
  4  5  2  0  0  0  0
  4 33  1  0  0  0  0
  5  6  1  0  0  0  0
  5 34  1  0  0  0  0
  6  7  1  0  0  0  0
  6 16  2  0  0  0  0
  7  8  1  0  0  0  0
  7 35  1  0  0  0  0
  7 36  1  0  0  0  0
  8  9  1  0  0  0  0
  8 18  1  0  0  0  0
  9 10  2  0  0  0  0
  9 11  2  0  0  0  0
  9 12  1  0  0  0  0
 12 13  1  0  0  0  0
 12 14  1  0  0  0  0
 13 37  1  0  0  0  0
 13 38  1  0  0  0  0
 13 39  1  0  0  0  0
 14 15  1  0  0  0  0
 14 40  1  0  0  0  0
 14 41  1  0  0  0  0
 15 42  1  0  0  0  0
 15 43  1  0  0  0  0
 15 44  1  0  0  0  0
 16 17  1  0  0  0  0
 17 18  1  0  0  0  0
 17 19  1  0  0  0  0
 17 45  1  0  0  0  0
 18 46  1  0  0  0  0
 18 47  1  0  0  0  0
 19 20  2  0  0  0  0
 19 21  1  0  0  0  0
 21 22  1  0  0  0  0
 21 48  1  0  0  0  0
 22 23  2  0  0  0  0
 22 31  1  0  0  0  0
 23 24  1  0  0  0  0
 23 28  1  0  0  0  0
 24 25  2  0  0  0  0
 24 49  1  0  0  0  0
 25 26  1  0  0  0  0
 25 50  1  0  0  0  0
 26 27  2  0  0  0  0
 26 51  1  0  0  0  0
 27 28  1  0  0  0  0
 27 52  1  0  0  0  0
 28 29  2  0  0  0  0
 29 30  1  0  0  0  0
 29 53  1  0  0  0  0
 30 31  2  0  0  0  0
 31 54  1  0  0  0  0
M  END
> <compound_name>
MAT-POS-5cd9ea36-16

> <provenance>
{"isomeric_smiles": "CCN(C)S(=O)(=O)N1Cc2ccc(cc2[C@@H](C1)C(=O)Nc3cncc4c3cccc4)Cl", "inchi": "InChI=1S/C22H23ClN4O3S/c1-3-26(2)31(29,30)27-13-16-8-9-17(23)10-19(16)20(14-27)22(28)25-21-12-24-11-15-6-4-5-7-18(15)21/h4-12,20H,3,13-14H2,1-2H3,(H,25,28)/t20-/m1/s1", "inchi_key": "PKNUWHGBAIVWIT-HXUWFJFHSA-N", "fixed_inchi": "InChI=1/C22H23ClN4O3S/c1-3-26(2)31(29,30)27-13-16-8-9-17(23)10-19(16)20(14-27)22(28)25-21-12-24-11-15-6-4-5-7-18(15)21/h4-12,20H,3,13-14H2,1-2H3,(H,25,28)/t20-/m1/s1/f/h25H", "fixed_inchikey": "PKNUWHGBAIVWIT-KLFDUCQCNA-N"}

> <data_format>
sdf

$$$$
