LIG(A-306)
  -OEChem-06042511393D

 49 52  0     1  0  0  0  0  0999 V2000
   10.7248    3.1227   24.3448 O   0  0  0  0  0  0  0  0  0  0  0  0
   10.3803    1.9826   24.0953 C   0  0  0  0  0  0  0  0  0  0  0  0
    9.0864    1.5484   24.3036 N   0  0  0  0  0  0  0  0  0  0  0  0
    8.1804    2.3594   25.0959 C   0  0  0  0  0  0  0  0  0  0  0  0
    7.3142    3.3352   24.3159 C   0  0  0  0  0  0  0  0  0  0  0  0
    6.3275    3.8447   24.8448 O   0  0  0  0  0  0  0  0  0  0  0  0
    7.6644    3.5986   23.0611 N   0  0  0  0  0  0  0  0  0  0  0  0
    6.8740    4.4556   22.1976 C   0  0  0  0  0  0  0  0  0  0  0  0
   11.2910    1.0309   23.4303 C   0  0  0  0  0  0  0  0  0  0  0  0
   12.6387    1.3668   23.2706 C   0  0  0  0  0  0  0  0  0  0  0  0
   13.5036    0.5011   22.6250 C   0  0  0  0  0  0  0  0  0  0  0  0
   13.0169   -0.6955   22.1393 C   0  0  0  0  0  0  0  0  0  0  0  0
   14.0913   -1.7626   21.2777 Cl  0  0  0  0  0  0  0  0  0  0  0  0
   11.6861   -1.0463   22.2719 C   0  0  0  0  0  0  0  0  0  0  0  0
   10.7992   -0.1654   22.8916 C   0  0  0  0  0  0  0  0  0  0  0  0
    9.3106   -0.4461   22.8757 C   0  0  1  0  0  0  0  0  0  0  0  0
    8.6673    0.1551   24.1268 C   0  0  0  0  0  0  0  0  0  0  0  0
    8.7027    0.2253   21.6411 C   0  0  0  0  0  0  0  0  0  0  0  0
    9.1518    1.2766   21.1802 O   0  0  0  0  0  0  0  0  0  0  0  0
    7.6102   -0.3938   21.1324 N   0  0  0  0  0  0  0  0  0  0  0  0
    6.8117    0.0303   20.0417 C   0  0  0  0  0  0  0  0  0  0  0  0
    5.6937    0.8874   20.2973 C   0  0  0  0  0  0  0  0  0  0  0  0
    5.2218    1.2060   21.5991 C   0  0  0  0  0  0  0  0  0  0  0  0
    4.1316    2.0115   21.7744 C   0  0  0  0  0  0  0  0  0  0  0  0
    3.4664    2.5524   20.6812 C   0  0  0  0  0  0  0  0  0  0  0  0
    3.8804    2.2768   19.4087 C   0  0  0  0  0  0  0  0  0  0  0  0
    4.9945    1.4295   19.1802 C   0  0  0  0  0  0  0  0  0  0  0  0
    5.4383    1.0669   17.8853 C   0  0  0  0  0  0  0  0  0  0  0  0
    6.4614    0.2558   17.6489 N   0  0  0  0  0  0  0  0  0  0  0  0
    7.1147   -0.2428   18.7073 C   0  0  0  0  0  0  0  0  0  0  0  0
    7.5126    1.6802   25.6461 H   0  0  0  0  0  0  0  0  0  0  0  0
    8.7832    2.9394   25.8103 H   0  0  0  0  0  0  0  0  0  0  0  0
    8.5030    3.1914   22.6991 H   0  0  0  0  0  0  0  0  0  0  0  0
    7.3555    4.5275   21.2112 H   0  0  0  0  0  0  0  0  0  0  0  0
    5.8657    4.0308   22.0831 H   0  0  0  0  0  0  0  0  0  0  0  0
    6.8010    5.4583   22.6438 H   0  0  0  0  0  0  0  0  0  0  0  0
   13.0066    2.3073   23.6532 H   0  0  0  0  0  0  0  0  0  0  0  0
   14.5454    0.7582   22.5030 H   0  0  0  0  0  0  0  0  0  0  0  0
   11.3352   -1.9968   21.8981 H   0  0  0  0  0  0  0  0  0  0  0  0
    9.1284   -1.5304   22.8425 H   0  0  0  0  0  0  0  0  0  0  0  0
    7.5728    0.1171   24.0244 H   0  0  0  0  0  0  0  0  0  0  0  0
    8.9737   -0.4290   25.0072 H   0  0  0  0  0  0  0  0  0  0  0  0
    7.3365   -1.2466   21.5771 H   0  0  0  0  0  0  0  0  0  0  0  0
    5.7320    0.8059   22.4627 H   0  0  0  0  0  0  0  0  0  0  0  0
    3.7836    2.2299   22.7732 H   0  0  0  0  0  0  0  0  0  0  0  0
    2.6141    3.1967   20.8388 H   0  0  0  0  0  0  0  0  0  0  0  0
    3.3546    2.7078   18.5696 H   0  0  0  0  0  0  0  0  0  0  0  0
    4.9107    1.4763   17.0365 H   0  0  0  0  0  0  0  0  0  0  0  0
    7.9418   -0.9092   18.5118 H   0  0  0  0  0  0  0  0  0  0  0  0
  1  2  2  0  0  0  0
  2  3  1  0  0  0  0
  2  9  1  0  0  0  0
  3  4  1  0  0  0  0
  3 17  1  0  0  0  0
  4  5  1  0  0  0  0
  4 31  1  0  0  0  0
  4 32  1  0  0  0  0
  5  6  2  0  0  0  0
  5  7  1  0  0  0  0
  7  8  1  0  0  0  0
  7 33  1  0  0  0  0
  8 34  1  0  0  0  0
  8 35  1  0  0  0  0
  8 36  1  0  0  0  0
  9 10  2  0  0  0  0
  9 15  1  0  0  0  0
 10 11  1  0  0  0  0
 10 37  1  0  0  0  0
 11 12  2  0  0  0  0
 11 38  1  0  0  0  0
 12 13  1  0  0  0  0
 12 14  1  0  0  0  0
 14 15  2  0  0  0  0
 14 39  1  0  0  0  0
 15 16  1  0  0  0  0
 16 17  1  0  0  0  0
 16 18  1  0  0  0  0
 16 40  1  0  0  0  0
 17 41  1  0  0  0  0
 17 42  1  0  0  0  0
 18 19  2  0  0  0  0
 18 20  1  0  0  0  0
 20 21  1  0  0  0  0
 20 43  1  0  0  0  0
 21 22  2  0  0  0  0
 21 30  1  0  0  0  0
 22 23  1  0  0  0  0
 22 27  1  0  0  0  0
 23 24  2  0  0  0  0
 23 44  1  0  0  0  0
 24 25  1  0  0  0  0
 24 45  1  0  0  0  0
 25 26  2  0  0  0  0
 25 46  1  0  0  0  0
 26 27  1  0  0  0  0
 26 47  1  0  0  0  0
 27 28  2  0  0  0  0
 28 29  1  0  0  0  0
 28 48  1  0  0  0  0
 29 30  2  0  0  0  0
 30 49  1  0  0  0  0
M  END
> <compound_name>
EDJ-MED-015fb6b4-2

> <provenance>
{"isomeric_smiles": "CNC(=O)CN1C[C@H](c2cc(ccc2C1=O)Cl)C(=O)Nc3cncc4c3cccc4", "inchi": "InChI=1S/C22H19ClN4O3/c1-24-20(28)12-27-11-18(17-8-14(23)6-7-16(17)22(27)30)21(29)26-19-10-25-9-13-4-2-3-5-15(13)19/h2-10,18H,11-12H2,1H3,(H,24,28)(H,26,29)/t18-/m1/s1", "inchi_key": "JTYFNCRZNYLUFK-GOSISDBHSA-N", "fixed_inchi": "InChI=1/C22H19ClN4O3/c1-24-20(28)12-27-11-18(17-8-14(23)6-7-16(17)22(27)30)21(29)26-19-10-25-9-13-4-2-3-5-15(13)19/h2-10,18H,11-12H2,1H3,(H,24,28)(H,26,29)/t18-/m1/s1/f/h24,26H", "fixed_inchikey": "JTYFNCRZNYLUFK-RPBBETCJNA-N"}

> <data_format>
sdf

$$$$
