LIG(A-306)
  -OEChem-06042511403D

 44 47  0     1  0  0  0  0  0999 V2000
   14.0305   -1.5342   21.4188 Cl  0  0  0  0  0  0  0  0  0  0  0  0
   12.7365   -0.8243   22.3479 C   0  0  0  0  0  0  0  0  0  0  0  0
   11.4375   -1.2183   22.0940 C   0  0  0  0  0  0  0  0  0  0  0  0
   13.0266    0.1437   23.2859 C   0  0  0  0  0  0  0  0  0  0  0  0
   11.9906    0.7237   23.9950 C   0  0  0  0  0  0  0  0  0  0  0  0
   10.6636    0.3576   23.7621 C   0  0  0  0  0  0  0  0  0  0  0  0
    9.5707    0.9766   24.6092 C   0  0  0  0  0  0  0  0  0  0  0  0
    8.2216    0.6495   24.1253 N   0  0  0  0  0  0  0  0  0  0  0  0
    7.0927    1.2685   24.8324 C   0  0  0  0  0  0  0  0  0  0  0  0
    6.0497    0.6094   24.9835 O   0  0  0  0  0  0  0  0  0  0  0  0
    7.2207    2.5225   25.2814 N   0  0  0  0  0  0  0  0  0  0  0  0
   10.3866   -0.6164   22.7871 C   0  0  0  0  0  0  0  0  0  0  0  0
    8.9515   -1.0054   22.4982 C   0  0  1  0  0  0  0  0  0  0  0  0
    8.0876   -0.7545   23.7333 C   0  0  0  0  0  0  0  0  0  0  0  0
    8.4484   -0.1444   21.3373 C   0  0  0  0  0  0  0  0  0  0  0  0
    8.9894    0.9206   21.0262 O   0  0  0  0  0  0  0  0  0  0  0  0
    7.3454   -0.6284   20.7153 N   0  0  0  0  0  0  0  0  0  0  0  0
    6.5973   -0.0144   19.6944 C   0  0  0  0  0  0  0  0  0  0  0  0
    5.4963    0.8205   20.0625 C   0  0  0  0  0  0  0  0  0  0  0  0
    5.0684    1.0195   21.4016 C   0  0  0  0  0  0  0  0  0  0  0  0
    4.0094    1.8354   21.6867 C   0  0  0  0  0  0  0  0  0  0  0  0
    3.3203    2.4854   20.6687 C   0  0  0  0  0  0  0  0  0  0  0  0
    3.6942    2.3255   19.3657 C   0  0  0  0  0  0  0  0  0  0  0  0
    4.7912    1.4945   19.0256 C   0  0  0  0  0  0  0  0  0  0  0  0
    5.2271    1.2935   17.6926 C   0  0  0  0  0  0  0  0  0  0  0  0
    6.2431    0.5146   17.3495 N   0  0  0  0  0  0  0  0  0  0  0  0
    6.8992   -0.1154   18.3334 C   0  0  0  0  0  0  0  0  0  0  0  0
   11.2362   -1.9878   21.3634 H   0  0  0  0  0  0  0  0  0  0  0  0
   14.0483    0.4447   23.4643 H   0  0  0  0  0  0  0  0  0  0  0  0
   12.2118    1.4722   24.7414 H   0  0  0  0  0  0  0  0  0  0  0  0
    9.6735    0.6073   25.6403 H   0  0  0  0  0  0  0  0  0  0  0  0
    9.6930    2.0697   24.5972 H   0  0  0  0  0  0  0  0  0  0  0  0
    6.4601    2.9627   25.7586 H   0  0  0  0  0  0  0  0  0  0  0  0
    8.0768    3.0193   25.1398 H   0  0  0  0  0  0  0  0  0  0  0  0
    8.9009   -2.0684   22.2199 H   0  0  0  0  0  0  0  0  0  0  0  0
    8.4231   -1.4019   24.5568 H   0  0  0  0  0  0  0  0  0  0  0  0
    7.0355   -0.9742   23.4994 H   0  0  0  0  0  0  0  0  0  0  0  0
    7.0263   -1.5267   21.0176 H   0  0  0  0  0  0  0  0  0  0  0  0
    5.5868    0.5192   22.2061 H   0  0  0  0  0  0  0  0  0  0  0  0
    3.7048    1.9767   22.7131 H   0  0  0  0  0  0  0  0  0  0  0  0
    2.4823    3.1221   20.9111 H   0  0  0  0  0  0  0  0  0  0  0  0
    3.1489    2.8370   18.5863 H   0  0  0  0  0  0  0  0  0  0  0  0
    4.6971    1.8084   16.9049 H   0  0  0  0  0  0  0  0  0  0  0  0
    7.7261   -0.7510   18.0528 H   0  0  0  0  0  0  0  0  0  0  0  0
  1  2  1  0  0  0  0
  2  3  2  0  0  0  0
  2  4  1  0  0  0  0
  3 12  1  0  0  0  0
  3 28  1  0  0  0  0
  4  5  2  0  0  0  0
  4 29  1  0  0  0  0
  5  6  1  0  0  0  0
  5 30  1  0  0  0  0
  6  7  1  0  0  0  0
  6 12  2  0  0  0  0
  7  8  1  0  0  0  0
  7 31  1  0  0  0  0
  7 32  1  0  0  0  0
  8  9  1  0  0  0  0
  8 14  1  0  0  0  0
  9 10  2  0  0  0  0
  9 11  1  0  0  0  0
 11 33  1  0  0  0  0
 11 34  1  0  0  0  0
 12 13  1  0  0  0  0
 13 14  1  0  0  0  0
 13 15  1  0  0  0  0
 13 35  1  0  0  0  0
 14 36  1  0  0  0  0
 14 37  1  0  0  0  0
 15 16  2  0  0  0  0
 15 17  1  0  0  0  0
 17 18  1  0  0  0  0
 17 38  1  0  0  0  0
 18 19  2  0  0  0  0
 18 27  1  0  0  0  0
 19 20  1  0  0  0  0
 19 24  1  0  0  0  0
 20 21  2  0  0  0  0
 20 39  1  0  0  0  0
 21 22  1  0  0  0  0
 21 40  1  0  0  0  0
 22 23  2  0  0  0  0
 22 41  1  0  0  0  0
 23 24  1  0  0  0  0
 23 42  1  0  0  0  0
 24 25  2  0  0  0  0
 25 26  1  0  0  0  0
 25 43  1  0  0  0  0
 26 27  2  0  0  0  0
 27 44  1  0  0  0  0
M  END
> <compound_name>
MAT-POS-dd3ad2b5-3

> <provenance>
{"isomeric_smiles": "c1ccc2c(c1)cncc2NC(=O)[C@@H]3CN(Cc4c3cc(cc4)Cl)C(=O)N", "inchi": "InChI=1S/C20H17ClN4O2/c21-14-6-5-13-10-25(20(22)27)11-17(16(13)7-14)19(26)24-18-9-23-8-12-3-1-2-4-15(12)18/h1-9,17H,10-11H2,(H2,22,27)(H,24,26)/t17-/m1/s1", "inchi_key": "PVUJOYSOOMMEIC-QGZVFWFLSA-N", "fixed_inchi": "InChI=1/C20H17ClN4O2/c21-14-6-5-13-10-25(20(22)27)11-17(16(13)7-14)19(26)24-18-9-23-8-12-3-1-2-4-15(12)18/h1-9,17H,10-11H2,(H2,22,27)(H,24,26)/t17-/m1/s1/f/h24H,22H2", "fixed_inchikey": "PVUJOYSOOMMEIC-PBOHSZPPNA-N"}

> <data_format>
sdf

$$$$
