LIG(A-305)
  -OEChem-06042511363D

 40 41  0     1  0  0  0  0  0999 V2000
    7.7925   -2.6207   20.9381 O   0  0  0  0  0  0  0  0  0  0  0  0
    7.9445   -1.6938   21.7242 C   0  0  0  0  0  0  0  0  0  0  0  0
    8.5744   -1.8969   23.1033 C   0  0  2  0  0  0  0  0  0  0  0  0
    9.9634   -1.2710   23.1464 C   0  0  0  0  0  0  0  0  0  0  0  0
   10.9205   -1.5889   22.1904 C   0  0  0  0  0  0  0  0  0  0  0  0
   12.1495   -0.9429   22.1745 C   0  0  0  0  0  0  0  0  0  0  0  0
   12.4364    0.0240   23.1176 C   0  0  0  0  0  0  0  0  0  0  0  0
   11.5054    0.3269   24.0926 C   0  0  0  0  0  0  0  0  0  0  0  0
   10.2764   -0.3161   24.1065 C   0  0  0  0  0  0  0  0  0  0  0  0
    8.6044   -3.3960   23.4381 C   0  0  0  0  0  0  0  0  0  0  0  0
    8.9523   -3.7081   24.8801 C   0  0  0  0  0  0  0  0  0  0  0  0
    8.8563   -5.1461   25.1309 N   0  3  0  0  0  0  0  0  0  0  0  0
    9.7692   -5.5523   26.1979 C   0  0  0  0  0  0  0  0  0  0  0  0
    7.4405   -0.4638   21.5113 N   0  0  0  0  0  0  0  0  0  0  0  0
    7.0456    0.1254   20.2864 C   0  0  0  0  0  0  0  0  0  0  0  0
    7.4816   -0.2365   19.0104 C   0  0  0  0  0  0  0  0  0  0  0  0
    6.9177    0.2116   17.8834 N   0  0  0  0  0  0  0  0  0  0  0  0
    5.8707    1.0366   18.0034 C   0  0  0  0  0  0  0  0  0  0  0  0
    5.3626    1.4505   19.2184 C   0  0  0  0  0  0  0  0  0  0  0  0
    5.9666    0.9964   20.3744 C   0  0  0  0  0  0  0  0  0  0  0  0
    7.9433   -1.3910   23.8488 H   0  0  0  0  0  0  0  0  0  0  0  0
   10.7060   -2.3468   21.4515 H   0  0  0  0  0  0  0  0  0  0  0  0
   12.8823   -1.1971   21.4231 H   0  0  0  0  0  0  0  0  0  0  0  0
   13.3843    0.5411   23.0933 H   0  0  0  0  0  0  0  0  0  0  0  0
   11.7352    1.0662   24.8457 H   0  0  0  0  0  0  0  0  0  0  0  0
    9.5547   -0.0719   24.8719 H   0  0  0  0  0  0  0  0  0  0  0  0
    7.6103   -3.8160   23.2252 H   0  0  0  0  0  0  0  0  0  0  0  0
    9.3523   -3.8781   22.7915 H   0  0  0  0  0  0  0  0  0  0  0  0
    9.9796   -3.3728   25.0853 H   0  0  0  0  0  0  0  0  0  0  0  0
    8.2539   -3.1775   25.5439 H   0  0  0  0  0  0  0  0  0  0  0  0
    7.9193   -5.3698   25.3992 H   0  0  0  0  0  0  0  0  0  0  0  0
    9.0904   -5.6408   24.2940 H   0  0  0  0  0  0  0  0  0  0  0  0
    9.6780   -6.6354   26.3668 H   0  0  0  0  0  0  0  0  0  0  0  0
   10.8027   -5.3124   25.9072 H   0  0  0  0  0  0  0  0  0  0  0  0
    9.5143   -5.0143   27.1230 H   0  0  0  0  0  0  0  0  0  0  0  0
    7.3309    0.1080   22.3243 H   0  0  0  0  0  0  0  0  0  0  0  0
    8.3186   -0.9142   18.9290 H   0  0  0  0  0  0  0  0  0  0  0  0
    5.3982    1.3977   17.1018 H   0  0  0  0  0  0  0  0  0  0  0  0
    4.5120    2.1145   19.2640 H   0  0  0  0  0  0  0  0  0  0  0  0
    5.6028    1.3159   21.3398 H   0  0  0  0  0  0  0  0  0  0  0  0
  1  2  2  0  0  0  0
  2  3  1  0  0  0  0
  2 14  1  0  0  0  0
  3  4  1  0  0  0  0
  3 10  1  0  0  0  0
  3 21  1  0  0  0  0
  4  5  2  0  0  0  0
  4  9  1  0  0  0  0
  5  6  1  0  0  0  0
  5 22  1  0  0  0  0
  6  7  2  0  0  0  0
  6 23  1  0  0  0  0
  7  8  1  0  0  0  0
  7 24  1  0  0  0  0
  8  9  2  0  0  0  0
  8 25  1  0  0  0  0
  9 26  1  0  0  0  0
 10 11  1  0  0  0  0
 10 27  1  0  0  0  0
 10 28  1  0  0  0  0
 11 12  1  0  0  0  0
 11 29  1  0  0  0  0
 11 30  1  0  0  0  0
 12 13  1  0  0  0  0
 12 31  1  0  0  0  0
 12 32  1  0  0  0  0
 13 33  1  0  0  0  0
 13 34  1  0  0  0  0
 13 35  1  0  0  0  0
 14 15  1  0  0  0  0
 14 36  1  0  0  0  0
 15 16  2  0  0  0  0
 15 20  1  0  0  0  0
 16 17  1  0  0  0  0
 16 37  1  0  0  0  0
 17 18  2  0  0  0  0
 18 19  1  0  0  0  0
 18 38  1  0  0  0  0
 19 20  2  0  0  0  0
 19 39  1  0  0  0  0
 20 40  1  0  0  0  0
M  CHG  1  12   1
M  END
> <compound_name>
ADA-UNI-f8e79267-5

> <provenance>
{"isomeric_smiles": "C[NH2+]CC[C@@H](c1ccccc1)C(=O)Nc2cccnc2", "inchi": "InChI=1S/C16H19N3O/c1-17-11-9-15(13-6-3-2-4-7-13)16(20)19-14-8-5-10-18-12-14/h2-8,10,12,15,17H,9,11H2,1H3,(H,19,20)/p+1/t15-/m0/s1", "inchi_key": "AMGHFKIRDXLNJU-HNNXBMFYSA-O", "fixed_inchi": "InChI=1/C16H19N3O/c1-17-11-9-15(13-6-3-2-4-7-13)16(20)19-14-8-5-10-18-12-14/h2-8,10,12,15,17H,9,11H2,1H3,(H,19,20)/p+1/t15-/m0/s1/fC16H20N3O/h17,19H/q+1", "fixed_inchikey": "AMGHFKIRDXLNJU-TYNPIJMNNA-O"}

> <data_format>
sdf

$$$$
