LIG(A-305)
  -OEChem-06042511303D

 40 42  0     1  0  0  0  0  0999 V2000
    6.5303    0.6125   17.2912 N   0  0  0  0  0  0  0  0  0  0  0  0
   11.9087    4.7311   22.2570 N   0  0  0  0  0  0  0  0  0  0  0  0
    5.5007    0.7864   19.8984 C   0  0  0  0  0  0  0  0  0  0  0  0
   13.2190    0.5668   22.7214 C   0  0  0  0  0  0  0  0  0  0  0  0
   12.5505    2.7198   23.5257 O   0  0  0  0  0  0  0  0  0  0  0  0
   10.5289   -0.1817   22.6446 C   0  0  0  0  0  0  0  0  0  0  0  0
    4.8797    1.4246   18.8285 C   0  0  0  0  0  0  0  0  0  0  0  0
   10.8941    1.0731   23.1207 C   0  0  0  0  0  0  0  0  0  0  0  0
    8.4678    0.1728   21.2649 C   0  0  0  0  0  0  0  0  0  0  0  0
    6.6735    0.0522   19.6222 C   0  0  0  0  0  0  0  0  0  0  0  0
    7.1323   -0.0127   18.3081 C   0  0  0  0  0  0  0  0  0  0  0  0
   12.8165    3.5489   22.3847 C   0  0  2  0  0  0  0  0  0  0  0  0
   12.8387   -0.6851   22.2823 C   0  0  0  0  0  0  0  0  0  0  0  0
   11.5157   -1.0699   22.2364 C   0  0  0  0  0  0  0  0  0  0  0  0
   12.2292    1.4409   23.1376 C   0  0  0  0  0  0  0  0  0  0  0  0
   13.8977    4.5477   22.8087 C   0  0  0  0  0  0  0  0  0  0  0  0
    4.9599    0.9374   21.2975 C   0  0  0  0  0  0  0  0  0  0  0  0
    7.4376   -0.4820   20.6860 N   0  0  0  0  0  0  0  0  0  0  0  0
    8.8789    1.2617   20.8780 O   0  0  0  0  0  0  0  0  0  0  0  0
   13.0270    6.7709   21.9340 O   0  0  0  0  0  0  0  0  0  0  0  0
    9.0698   -0.5305   22.4658 C   0  0  0  0  0  0  0  0  0  0  0  0
    5.4255    1.3197   17.5644 C   0  0  0  0  0  0  0  0  0  0  0  0
   12.9378    5.5979   22.2789 C   0  0  0  0  0  0  0  0  0  0  0  0
   14.0665   -1.8273   21.8170 Cl  0  0  0  0  0  0  0  0  0  0  0  0
   10.9170    4.8367   22.1834 H   0  0  0  0  0  0  0  0  0  0  0  0
   14.2593    0.8564   22.7398 H   0  0  0  0  0  0  0  0  0  0  0  0
    3.9778    1.9976   18.9859 H   0  0  0  0  0  0  0  0  0  0  0  0
   10.1389    1.7585   23.4761 H   0  0  0  0  0  0  0  0  0  0  0  0
    8.0171   -0.5963   18.1010 H   0  0  0  0  0  0  0  0  0  0  0  0
   13.0293    3.0224   21.4425 H   0  0  0  0  0  0  0  0  0  0  0  0
   11.2482   -2.0556   21.8854 H   0  0  0  0  0  0  0  0  0  0  0  0
   14.0949    4.5949   23.8899 H   0  0  0  0  0  0  0  0  0  0  0  0
   14.8507    4.4662   22.2654 H   0  0  0  0  0  0  0  0  0  0  0  0
    4.0724    1.5869   21.2799 H   0  0  0  0  0  0  0  0  0  0  0  0
    4.6828   -0.0514   21.6919 H   0  0  0  0  0  0  0  0  0  0  0  0
    5.7302    1.3865   21.9417 H   0  0  0  0  0  0  0  0  0  0  0  0
    7.2028   -1.3921   21.0274 H   0  0  0  0  0  0  0  0  0  0  0  0
    8.5182   -0.2295   23.3686 H   0  0  0  0  0  0  0  0  0  0  0  0
    8.9778   -1.6175   22.3253 H   0  0  0  0  0  0  0  0  0  0  0  0
    4.9353    1.8355   16.7520 H   0  0  0  0  0  0  0  0  0  0  0  0
  1 11  1  0  0  0  0
  1 22  2  0  0  0  0
  2 12  1  0  0  0  0
  2 23  1  0  0  0  0
  2 25  1  0  0  0  0
  3  7  2  0  0  0  0
  3 10  1  0  0  0  0
  3 17  1  0  0  0  0
  4 13  1  0  0  0  0
  4 15  2  0  0  0  0
  4 26  1  0  0  0  0
  5 12  1  0  0  0  0
  5 15  1  0  0  0  0
  6  8  2  0  0  0  0
  6 14  1  0  0  0  0
  6 21  1  0  0  0  0
  7 22  1  0  0  0  0
  7 27  1  0  0  0  0
  8 15  1  0  0  0  0
  8 28  1  0  0  0  0
  9 18  1  0  0  0  0
  9 19  2  0  0  0  0
  9 21  1  0  0  0  0
 10 11  2  0  0  0  0
 10 18  1  0  0  0  0
 11 29  1  0  0  0  0
 12 16  1  0  0  0  0
 12 30  1  0  0  0  0
 13 14  2  0  0  0  0
 13 24  1  0  0  0  0
 14 31  1  0  0  0  0
 16 23  1  0  0  0  0
 16 32  1  0  0  0  0
 16 33  1  0  0  0  0
 17 34  1  0  0  0  0
 17 35  1  0  0  0  0
 17 36  1  0  0  0  0
 18 37  1  0  0  0  0
 20 23  2  0  0  0  0
 21 38  1  0  0  0  0
 21 39  1  0  0  0  0
 22 40  1  0  0  0  0
M  END
> <compound_name>
TRY-UNI-2eddb1ff-7

> <provenance>
{"isomeric_smiles": "Cc1ccncc1NC(=O)Cc2cc(cc(c2)Cl)O[C@@H]3CC(=O)N3", "inchi": "InChI=1S/C17H16ClN3O3/c1-10-2-3-19-9-14(10)20-15(22)6-11-4-12(18)7-13(5-11)24-17-8-16(23)21-17/h2-5,7,9,17H,6,8H2,1H3,(H,20,22)(H,21,23)/t17-/m1/s1", "inchi_key": "JCZDGTYSQGAPDN-QGZVFWFLSA-N", "fixed_inchi": "InChI=1/C17H16ClN3O3/c1-10-2-3-19-9-14(10)20-15(22)6-11-4-12(18)7-13(5-11)24-17-8-16(23)21-17/h2-5,7,9,17H,6,8H2,1H3,(H,20,22)(H,21,23)/t17-/m1/s1/f/h20-21H", "fixed_inchikey": "JCZDGTYSQGAPDN-VCVZNOGINA-N"}

> <data_format>
sdf

$$$$
