LIG(A-306)
  -OEChem-06042511423D

 44 47  0     1  0  0  0  0  0999 V2000
    9.5197    1.3852   21.2055 O   0  0  0  0  0  0  0  0  0  0  0  0
    9.0676    0.3874   21.7717 C   0  0  0  0  0  0  0  0  0  0  0  0
    7.9351   -0.2441   21.3720 N   0  0  0  0  0  0  0  0  0  0  0  0
    7.1333    0.0604   20.2418 C   0  0  0  0  0  0  0  0  0  0  0  0
    6.0153    0.9205   20.3165 C   0  0  0  0  0  0  0  0  0  0  0  0
    5.6402    1.5689   21.6289 C   0  0  0  0  0  0  0  0  0  0  0  0
    4.2013    2.0480   21.6559 C   0  0  0  0  0  0  0  0  0  0  0  0
    3.8606    2.8560   20.4120 C   0  0  0  0  0  0  0  0  0  0  0  0
    4.0413    2.0288   19.1568 C   0  0  0  0  0  0  0  0  0  0  0  0
    5.3034    1.1990   19.1362 C   0  0  0  0  0  0  0  0  0  0  0  0
    5.7587    0.6428   17.9602 C   0  0  0  0  0  0  0  0  0  0  0  0
    6.8188   -0.1621   17.8648 N   0  0  0  0  0  0  0  0  0  0  0  0
    7.4806   -0.4472   18.9912 C   0  0  0  0  0  0  0  0  0  0  0  0
    9.7607   -0.2521   22.9793 C   0  0  1  0  0  0  0  0  0  0  0  0
   11.2711   -0.0805   22.9646 C   0  0  0  0  0  0  0  0  0  0  0  0
   12.0569   -0.9203   22.1751 C   0  0  0  0  0  0  0  0  0  0  0  0
   13.3884   -0.6223   21.9551 C   0  0  0  0  0  0  0  0  0  0  0  0
   14.2550   -1.5011   20.7284 Cl  0  0  0  0  0  0  0  0  0  0  0  0
    9.1713    0.2476   24.3060 C   0  0  0  0  0  0  0  0  0  0  0  0
    9.4986    1.6783   24.4330 N   0  0  0  0  0  0  0  0  0  0  0  0
   11.0623    1.9378   24.8167 S   0  0  0  0  0  0  0  0  0  0  0  0
   11.3454    3.3272   24.6105 O   0  0  0  0  0  0  0  0  0  0  0  0
   11.3016    1.3709   26.1118 O   0  0  0  0  0  0  0  0  0  0  0  0
   11.9117    0.9829   23.6126 C   0  0  0  0  0  0  0  0  0  0  0  0
   13.2593    1.2548   23.4114 C   0  0  0  0  0  0  0  0  0  0  0  0
   14.0011    0.4483   22.5691 C   0  0  0  0  0  0  0  0  0  0  0  0
    7.6312   -1.0105   21.9380 H   0  0  0  0  0  0  0  0  0  0  0  0
    5.7821    0.8357   22.4366 H   0  0  0  0  0  0  0  0  0  0  0  0
    6.3015    2.4318   21.7967 H   0  0  0  0  0  0  0  0  0  0  0  0
    3.5345    1.1748   21.7090 H   0  0  0  0  0  0  0  0  0  0  0  0
    4.0509    2.6787   22.5444 H   0  0  0  0  0  0  0  0  0  0  0  0
    2.8140    3.1884   20.4753 H   0  0  0  0  0  0  0  0  0  0  0  0
    4.5218    3.7336   20.3618 H   0  0  0  0  0  0  0  0  0  0  0  0
    3.1808    1.3497   19.0649 H   0  0  0  0  0  0  0  0  0  0  0  0
    4.0635    2.7113   18.2945 H   0  0  0  0  0  0  0  0  0  0  0  0
    5.2203    0.8744   17.0532 H   0  0  0  0  0  0  0  0  0  0  0  0
    8.3324   -1.1081   18.9283 H   0  0  0  0  0  0  0  0  0  0  0  0
    9.5591   -1.3323   22.9279 H   0  0  0  0  0  0  0  0  0  0  0  0
   11.6235   -1.8061   21.7346 H   0  0  0  0  0  0  0  0  0  0  0  0
    8.0797    0.1120   24.3054 H   0  0  0  0  0  0  0  0  0  0  0  0
    9.6099   -0.3126   25.1450 H   0  0  0  0  0  0  0  0  0  0  0  0
    9.0385    2.3303   23.8304 H   0  0  0  0  0  0  0  0  0  0  0  0
   13.7245    2.0919   23.9105 H   0  0  0  0  0  0  0  0  0  0  0  0
   15.0468    0.6544   22.3947 H   0  0  0  0  0  0  0  0  0  0  0  0
  1  2  2  0  0  0  0
  2  3  1  0  0  0  0
  2 14  1  0  0  0  0
  3  4  1  0  0  0  0
  3 27  1  0  0  0  0
  4  5  2  0  0  0  0
  4 13  1  0  0  0  0
  5  6  1  0  0  0  0
  5 10  1  0  0  0  0
  6  7  1  0  0  0  0
  6 28  1  0  0  0  0
  6 29  1  0  0  0  0
  7  8  1  0  0  0  0
  7 30  1  0  0  0  0
  7 31  1  0  0  0  0
  8  9  1  0  0  0  0
  8 32  1  0  0  0  0
  8 33  1  0  0  0  0
  9 10  1  0  0  0  0
  9 34  1  0  0  0  0
  9 35  1  0  0  0  0
 10 11  2  0  0  0  0
 11 12  1  0  0  0  0
 11 36  1  0  0  0  0
 12 13  2  0  0  0  0
 13 37  1  0  0  0  0
 14 15  1  0  0  0  0
 14 19  1  0  0  0  0
 14 38  1  0  0  0  0
 15 16  2  0  0  0  0
 15 24  1  0  0  0  0
 16 17  1  0  0  0  0
 16 39  1  0  0  0  0
 17 18  1  0  0  0  0
 17 26  2  0  0  0  0
 19 20  1  0  0  0  0
 19 40  1  0  0  0  0
 19 41  1  0  0  0  0
 20 21  1  0  0  0  0
 20 42  1  0  0  0  0
 21 22  2  0  0  0  0
 21 23  2  0  0  0  0
 21 24  1  0  0  0  0
 24 25  2  0  0  0  0
 25 26  1  0  0  0  0
 25 43  1  0  0  0  0
 26 44  1  0  0  0  0
M  END
> <compound_name>
ALP-POS-4483ae88-4

> <provenance>
{"isomeric_smiles": "c1cc2c(cc1Cl)[C@@H](CNS2(=O)=O)C(=O)Nc3cncc4c3CCCC4", "inchi": "InChI=1S/C18H18ClN3O3S/c19-12-5-6-17-14(7-12)15(9-21-26(17,24)25)18(23)22-16-10-20-8-11-3-1-2-4-13(11)16/h5-8,10,15,21H,1-4,9H2,(H,22,23)/t15-/m1/s1", "inchi_key": "HAFJUHKWFUKUJR-OAHLLOKOSA-N", "fixed_inchi": "InChI=1/C18H18ClN3O3S/c19-12-5-6-17-14(7-12)15(9-21-26(17,24)25)18(23)22-16-10-20-8-11-3-1-2-4-13(11)16/h5-8,10,15,21H,1-4,9H2,(H,22,23)/t15-/m1/s1/f/h22H", "fixed_inchikey": "HAFJUHKWFUKUJR-RYSKXMCPNA-N"}

> <data_format>
sdf

$$$$
