LIG(A-305)
  -OEChem-06042511333D

 35 37  0     0  0  0  0  0  0999 V2000
    9.2222    0.8638   20.9841 O   0  0  0  0  0  0  0  0  0  0  0  0
    8.6122   -0.0811   21.4721 C   0  0  0  0  0  0  0  0  0  0  0  0
    9.0632   -0.7422   22.7510 C   0  0  0  0  0  0  0  0  0  0  0  0
   10.4111   -1.4453   22.6449 C   0  0  0  0  0  0  0  0  0  0  0  0
   11.6761   -0.5915   22.3899 C   0  0  0  0  0  0  0  0  0  0  0  0
   12.3881   -1.2786   23.5689 C   0  0  0  0  0  0  0  0  0  0  0  0
   13.4232   -0.7307   24.4928 C   0  0  0  0  0  0  0  0  0  0  0  0
   13.7431   -1.9077   23.6098 C   0  0  0  0  0  0  0  0  0  0  0  0
   11.0341   -1.8755   23.9929 C   0  0  0  0  0  0  0  0  0  0  0  0
    7.4691   -0.5740   20.9651 N   0  0  0  0  0  0  0  0  0  0  0  0
    6.7321   -0.0079   19.9022 C   0  0  0  0  0  0  0  0  0  0  0  0
    5.5752    0.7402   20.1802 C   0  0  0  0  0  0  0  0  0  0  0  0
    5.0763    0.9452   21.5883 C   0  0  0  0  0  0  0  0  0  0  0  0
    7.1520   -0.1319   18.5771 C   0  0  0  0  0  0  0  0  0  0  0  0
    6.5070    0.4282   17.5482 N   0  0  0  0  0  0  0  0  0  0  0  0
    5.4031    1.1333   17.8243 C   0  0  0  0  0  0  0  0  0  0  0  0
    4.9132    1.3143   19.1023 C   0  0  0  0  0  0  0  0  0  0  0  0
    9.1362    0.0292   23.5318 H   0  0  0  0  0  0  0  0  0  0  0  0
    8.3069   -1.4866   23.0407 H   0  0  0  0  0  0  0  0  0  0  0  0
   10.3635   -2.2937   21.9463 H   0  0  0  0  0  0  0  0  0  0  0  0
   12.1495   -0.7729   21.4137 H   0  0  0  0  0  0  0  0  0  0  0  0
   11.5225    0.4890   22.5278 H   0  0  0  0  0  0  0  0  0  0  0  0
   13.8789    0.2497   24.2899 H   0  0  0  0  0  0  0  0  0  0  0  0
   13.3204   -0.8694   25.5792 H   0  0  0  0  0  0  0  0  0  0  0  0
   13.8734   -2.9074   24.0498 H   0  0  0  0  0  0  0  0  0  0  0  0
   14.4320   -1.7883   22.7606 H   0  0  0  0  0  0  0  0  0  0  0  0
   11.0542   -2.9641   24.1497 H   0  0  0  0  0  0  0  0  0  0  0  0
   10.5845   -1.3869   24.8699 H   0  0  0  0  0  0  0  0  0  0  0  0
    7.1103   -1.4124   21.3754 H   0  0  0  0  0  0  0  0  0  0  0  0
    5.8484    1.4582   22.1804 H   0  0  0  0  0  0  0  0  0  0  0  0
    4.1628    1.5577   21.5679 H   0  0  0  0  0  0  0  0  0  0  0  0
    4.8532   -0.0308   22.0438 H   0  0  0  0  0  0  0  0  0  0  0  0
    8.0419   -0.7087   18.3725 H   0  0  0  0  0  0  0  0  0  0  0  0
    4.8667    1.5850   17.0029 H   0  0  0  0  0  0  0  0  0  0  0  0
    4.0197    1.8993   19.2632 H   0  0  0  0  0  0  0  0  0  0  0  0
  1  2  2  0  0  0  0
  2  3  1  0  0  0  0
  2 10  1  0  0  0  0
  3  4  1  0  0  0  0
  3 18  1  0  0  0  0
  3 19  1  0  0  0  0
  4  5  1  0  0  0  0
  4  9  1  0  0  0  0
  4 20  1  0  0  0  0
  5  6  1  0  0  0  0
  5 21  1  0  0  0  0
  5 22  1  0  0  0  0
  6  7  1  0  0  0  0
  6  8  1  0  0  0  0
  6  9  1  0  0  0  0
  7  8  1  0  0  0  0
  7 23  1  0  0  0  0
  7 24  1  0  0  0  0
  8 25  1  0  0  0  0
  8 26  1  0  0  0  0
  9 27  1  0  0  0  0
  9 28  1  0  0  0  0
 10 11  1  0  0  0  0
 10 29  1  0  0  0  0
 11 12  2  0  0  0  0
 11 14  1  0  0  0  0
 12 13  1  0  0  0  0
 12 17  1  0  0  0  0
 13 30  1  0  0  0  0
 13 31  1  0  0  0  0
 13 32  1  0  0  0  0
 14 15  2  0  0  0  0
 14 33  1  0  0  0  0
 15 16  1  0  0  0  0
 16 17  2  0  0  0  0
 16 34  1  0  0  0  0
 17 35  1  0  0  0  0
M  END
> <compound_name>
MAT-POS-590ac91e-24

> <provenance>
{"isomeric_smiles": "Cc1ccncc1NC(=O)CC2CC3(C2)CC3", "inchi": "InChI=1S/C14H18N2O/c1-10-2-5-15-9-12(10)16-13(17)6-11-7-14(8-11)3-4-14/h2,5,9,11H,3-4,6-8H2,1H3,(H,16,17)", "inchi_key": "BEZLDJLMZNYTJV-UHFFFAOYSA-N", "fixed_inchi": "InChI=1/C14H18N2O/c1-10-2-5-15-9-12(10)16-13(17)6-11-7-14(8-11)3-4-14/h2,5,9,11H,3-4,6-8H2,1H3,(H,16,17)/f/h16H", "fixed_inchikey": "BEZLDJLMZNYTJV-WYUMXYHSNA-N"}

> <data_format>
sdf

$$$$
