LIG(A-305)
  -OEChem-06042511363D

 43 46  0     0  0  0  0  0  0999 V2000
    5.6266   -2.7999   20.6887 O   0  0  0  0  0  0  0  0  0  0  0  0
    6.3147   -1.7970   20.7946 C   0  0  0  0  0  0  0  0  0  0  0  0
    6.1147   -0.6540   19.8416 C   0  0  0  0  0  0  0  0  0  0  0  0
    5.1549    0.3611   20.1107 C   0  0  0  0  0  0  0  0  0  0  0  0
    4.5120    0.5382   21.3637 C   0  0  0  0  0  0  0  0  0  0  0  0
    3.5922    1.5313   21.5448 C   0  0  0  0  0  0  0  0  0  0  0  0
    3.2762    2.3974   20.5128 C   0  0  0  0  0  0  0  0  0  0  0  0
    3.8760    2.2793   19.2928 C   0  0  0  0  0  0  0  0  0  0  0  0
    4.8279    1.2571   19.0567 C   0  0  0  0  0  0  0  0  0  0  0  0
    5.4877    1.0840   17.8146 C   0  0  0  0  0  0  0  0  0  0  0  0
    6.3906    0.1419   17.5746 N   0  0  0  0  0  0  0  0  0  0  0  0
    6.6786   -0.7071   18.5686 C   0  0  0  0  0  0  0  0  0  0  0  0
    7.2268   -1.6461   21.7815 N   0  0  0  0  0  0  0  0  0  0  0  0
    8.0910   -0.4642   21.9184 C   0  0  0  0  0  0  0  0  0  0  0  0
    9.5499   -0.8883   21.9923 C   0  0  0  0  0  0  0  0  0  0  0  0
    9.7579   -1.8563   23.0783 N   0  0  0  0  0  0  0  0  0  0  0  0
    8.8848   -3.0332   22.9574 C   0  0  0  0  0  0  0  0  0  0  0  0
    7.4118   -2.6301   22.8565 C   0  0  0  0  0  0  0  0  0  0  0  0
   11.0739   -2.0785   23.5572 C   0  0  0  0  0  0  0  0  0  0  0  0
   12.1849   -1.5466   22.8831 C   0  0  0  0  0  0  0  0  0  0  0  0
   13.4609   -1.7128   23.4059 C   0  0  0  0  0  0  0  0  0  0  0  0
   13.6530   -2.4138   24.5789 C   0  0  0  0  0  0  0  0  0  0  0  0
   12.5710   -2.9666   25.2351 C   0  0  0  0  0  0  0  0  0  0  0  0
   11.2849   -2.8055   24.7342 C   0  0  0  0  0  0  0  0  0  0  0  0
    4.7534   -0.1209   22.1845 H   0  0  0  0  0  0  0  0  0  0  0  0
    3.1065    1.6419   22.5030 H   0  0  0  0  0  0  0  0  0  0  0  0
    2.5459    3.1763   20.6749 H   0  0  0  0  0  0  0  0  0  0  0  0
    3.6233    2.9699   18.5018 H   0  0  0  0  0  0  0  0  0  0  0  0
    5.2397    1.7625   17.0118 H   0  0  0  0  0  0  0  0  0  0  0  0
    7.3982   -1.4876   18.3699 H   0  0  0  0  0  0  0  0  0  0  0  0
    7.9471    0.1942   21.0490 H   0  0  0  0  0  0  0  0  0  0  0  0
    7.8228    0.0780   22.8372 H   0  0  0  0  0  0  0  0  0  0  0  0
    9.8400   -1.3503   21.0371 H   0  0  0  0  0  0  0  0  0  0  0  0
   10.1744   -0.0015   22.1752 H   0  0  0  0  0  0  0  0  0  0  0  0
    9.1645   -3.5947   22.0538 H   0  0  0  0  0  0  0  0  0  0  0  0
    9.0209   -3.6718   23.8426 H   0  0  0  0  0  0  0  0  0  0  0  0
    7.0896   -2.1895   23.8116 H   0  0  0  0  0  0  0  0  0  0  0  0
    6.8051   -3.5219   22.6409 H   0  0  0  0  0  0  0  0  0  0  0  0
   12.0472   -1.0079   21.9572 H   0  0  0  0  0  0  0  0  0  0  0  0
   14.3101   -1.2897   22.8900 H   0  0  0  0  0  0  0  0  0  0  0  0
   14.6477   -2.5298   24.9831 H   0  0  0  0  0  0  0  0  0  0  0  0
   12.7255   -3.5285   26.1444 H   0  0  0  0  0  0  0  0  0  0  0  0
   10.4457   -3.2426   25.2548 H   0  0  0  0  0  0  0  0  0  0  0  0
  1  2  2  0  0  0  0
  2  3  1  0  0  0  0
  2 13  1  0  0  0  0
  3  4  2  0  0  0  0
  3 12  1  0  0  0  0
  4  5  1  0  0  0  0
  4  9  1  0  0  0  0
  5  6  2  0  0  0  0
  5 25  1  0  0  0  0
  6  7  1  0  0  0  0
  6 26  1  0  0  0  0
  7  8  2  0  0  0  0
  7 27  1  0  0  0  0
  8  9  1  0  0  0  0
  8 28  1  0  0  0  0
  9 10  2  0  0  0  0
 10 11  1  0  0  0  0
 10 29  1  0  0  0  0
 11 12  2  0  0  0  0
 12 30  1  0  0  0  0
 13 14  1  0  0  0  0
 13 18  1  0  0  0  0
 14 15  1  0  0  0  0
 14 31  1  0  0  0  0
 14 32  1  0  0  0  0
 15 16  1  0  0  0  0
 15 33  1  0  0  0  0
 15 34  1  0  0  0  0
 16 17  1  0  0  0  0
 16 19  1  0  0  0  0
 17 18  1  0  0  0  0
 17 35  1  0  0  0  0
 17 36  1  0  0  0  0
 18 37  1  0  0  0  0
 18 38  1  0  0  0  0
 19 20  2  0  0  0  0
 19 24  1  0  0  0  0
 20 21  1  0  0  0  0
 20 39  1  0  0  0  0
 21 22  2  0  0  0  0
 21 40  1  0  0  0  0
 22 23  1  0  0  0  0
 22 41  1  0  0  0  0
 23 24  2  0  0  0  0
 23 42  1  0  0  0  0
 24 43  1  0  0  0  0
M  END
> <compound_name>
MAR-UCB-f313ec4d-6

> <provenance>
{"isomeric_smiles": "c1ccc(cc1)N2CCN(CC2)C(=O)c3cncc4c3cccc4", "inchi": "InChI=1S/C20H19N3O/c24-20(19-15-21-14-16-6-4-5-9-18(16)19)23-12-10-22(11-13-23)17-7-2-1-3-8-17/h1-9,14-15H,10-13H2", "inchi_key": "UIQBSVLMOPGDAQ-UHFFFAOYSA-N", "fixed_inchi": "InChI=1/C20H19N3O/c24-20(19-15-21-14-16-6-4-5-9-18(16)19)23-12-10-22(11-13-23)17-7-2-1-3-8-17/h1-9,14-15H,10-13H2", "fixed_inchikey": "UIQBSVLMOPGDAQ-UHFFFAOYNA-N"}

> <data_format>
sdf

$$$$
