LIG(A-305)
  -OEChem-06042511303D

 33 34  0     0  0  0  0  0  0999 V2000
   13.8180   -1.8966   21.2029 Cl  0  0  0  0  0  0  0  0  0  0  0  0
   12.6510   -1.1076   22.2259 C   0  0  0  0  0  0  0  0  0  0  0  0
   13.0839   -0.1896   23.1599 C   0  0  0  0  0  0  0  0  0  0  0  0
   12.1429    0.4154   23.9789 C   0  0  0  0  0  0  0  0  0  0  0  0
   10.7949    0.1244   23.8269 C   0  0  0  0  0  0  0  0  0  0  0  0
   11.3160   -1.4076   22.0639 C   0  0  0  0  0  0  0  0  0  0  0  0
   10.3660   -0.7687   22.8509 C   0  0  0  0  0  0  0  0  0  0  0  0
    8.8940   -1.0017   22.5918 C   0  0  0  0  0  0  0  0  0  0  0  0
    8.4150   -0.1928   21.4018 C   0  0  0  0  0  0  0  0  0  0  0  0
    8.9419    0.8753   21.0838 O   0  0  0  0  0  0  0  0  0  0  0  0
    7.3230   -0.6898   20.7888 N   0  0  0  0  0  0  0  0  0  0  0  0
    6.6440   -0.0009   19.7508 C   0  0  0  0  0  0  0  0  0  0  0  0
    5.5650    0.8511   20.0377 C   0  0  0  0  0  0  0  0  0  0  0  0
    5.1059    1.0851   21.4567 C   0  0  0  0  0  0  0  0  0  0  0  0
    7.0830   -0.1569   18.4438 C   0  0  0  0  0  0  0  0  0  0  0  0
    6.5120    0.4701   17.4158 N   0  0  0  0  0  0  0  0  0  0  0  0
    5.4790    1.2781   17.6797 C   0  0  0  0  0  0  0  0  0  0  0  0
    4.9700    1.4941   18.9797 C   0  0  0  0  0  0  0  0  0  0  0  0
    3.8919    2.3570   19.1227 N   0  0  0  0  0  0  0  0  0  0  0  0
   14.1325    0.0526   23.2512 H   0  0  0  0  0  0  0  0  0  0  0  0
   12.4602    1.1154   24.7376 H   0  0  0  0  0  0  0  0  0  0  0  0
   10.0705    0.5966   24.4738 H   0  0  0  0  0  0  0  0  0  0  0  0
   11.0095   -2.1365   21.3282 H   0  0  0  0  0  0  0  0  0  0  0  0
    8.7294   -2.0704   22.3896 H   0  0  0  0  0  0  0  0  0  0  0  0
    8.3209   -0.7046   23.4825 H   0  0  0  0  0  0  0  0  0  0  0  0
    6.9763   -1.5822   21.0777 H   0  0  0  0  0  0  0  0  0  0  0  0
    5.9307    1.5165   22.0430 H   0  0  0  0  0  0  0  0  0  0  0  0
    4.2536    1.7806   21.4563 H   0  0  0  0  0  0  0  0  0  0  0  0
    4.7986    0.1287   21.9049 H   0  0  0  0  0  0  0  0  0  0  0  0
    7.9201   -0.8118   18.2522 H   0  0  0  0  0  0  0  0  0  0  0  0
    5.0090    1.7928   16.8548 H   0  0  0  0  0  0  0  0  0  0  0  0
    3.6280    2.7130   18.2261 H   0  0  0  0  0  0  0  0  0  0  0  0
    4.1494    3.1168   19.7198 H   0  0  0  0  0  0  0  0  0  0  0  0
  1  2  1  0  0  0  0
  2  3  2  0  0  0  0
  2  6  1  0  0  0  0
  3  4  1  0  0  0  0
  3 20  1  0  0  0  0
  4  5  2  0  0  0  0
  4 21  1  0  0  0  0
  5  7  1  0  0  0  0
  5 22  1  0  0  0  0
  6  7  2  0  0  0  0
  6 23  1  0  0  0  0
  7  8  1  0  0  0  0
  8  9  1  0  0  0  0
  8 24  1  0  0  0  0
  8 25  1  0  0  0  0
  9 10  2  0  0  0  0
  9 11  1  0  0  0  0
 11 12  1  0  0  0  0
 11 26  1  0  0  0  0
 12 13  2  0  0  0  0
 12 15  1  0  0  0  0
 13 14  1  0  0  0  0
 13 18  1  0  0  0  0
 14 27  1  0  0  0  0
 14 28  1  0  0  0  0
 14 29  1  0  0  0  0
 15 16  2  0  0  0  0
 15 30  1  0  0  0  0
 16 17  1  0  0  0  0
 17 18  2  0  0  0  0
 17 31  1  0  0  0  0
 18 19  1  0  0  0  0
 19 32  1  0  0  0  0
 19 33  1  0  0  0  0
M  END
> <compound_name>
TRY-UNI-714a760b-3

> <provenance>
{"isomeric_smiles": "Cc1c(cncc1NC(=O)Cc2cccc(c2)Cl)N", "inchi": "InChI=1S/C14H14ClN3O/c1-9-12(16)7-17-8-13(9)18-14(19)6-10-3-2-4-11(15)5-10/h2-5,7-8H,6,16H2,1H3,(H,18,19)", "inchi_key": "YFDTZFVQPPSTPK-UHFFFAOYSA-N", "fixed_inchi": "InChI=1/C14H14ClN3O/c1-9-12(16)7-17-8-13(9)18-14(19)6-10-3-2-4-11(15)5-10/h2-5,7-8H,6,16H2,1H3,(H,18,19)/f/h18H", "fixed_inchikey": "YFDTZFVQPPSTPK-GPQMBLKYNA-N"}

> <data_format>
sdf

$$$$
