LIG(A-306)
  -OEChem-06042511403D

 56 60  0     1  0  0  0  0  0999 V2000
    9.2680    1.3620   21.1094 O   0  0  0  0  0  0  0  0  0  0  0  0
    8.8760    0.2546   21.4523 C   0  0  0  0  0  0  0  0  0  0  0  0
    7.9624   -0.4067   20.7145 N   0  0  0  0  0  0  0  0  0  0  0  0
    6.9041   -0.0251   19.8740 C   0  0  0  0  0  0  0  0  0  0  0  0
    5.8784    0.8839   20.3038 C   0  0  0  0  0  0  0  0  0  0  0  0
    5.5508    1.1185   21.6652 C   0  0  0  0  0  0  0  0  0  0  0  0
    4.4708    1.8834   22.0093 C   0  0  0  0  0  0  0  0  0  0  0  0
    3.6744    2.4658   21.0321 C   0  0  0  0  0  0  0  0  0  0  0  0
    3.9570    2.2862   19.7087 C   0  0  0  0  0  0  0  0  0  0  0  0
    5.0559    1.4843   19.3087 C   0  0  0  0  0  0  0  0  0  0  0  0
    5.3304    1.1797   17.9575 C   0  0  0  0  0  0  0  0  0  0  0  0
    6.2783    0.3509   17.5587 N   0  0  0  0  0  0  0  0  0  0  0  0
    7.0156   -0.2435   18.5040 C   0  0  0  0  0  0  0  0  0  0  0  0
    9.4988   -0.4695   22.6719 C   0  0  2  0  0  0  0  0  0  0  0  0
    8.8053    0.1632   23.9025 C   0  0  0  0  0  0  0  0  0  0  0  0
    9.3555    1.5382   24.2161 C   0  0  0  0  0  0  0  0  0  0  0  0
   10.7690    1.5088   24.4777 O   0  0  0  0  0  0  0  0  0  0  0  0
   11.0001   -0.1701   22.7230 C   0  0  0  0  0  0  0  0  0  0  0  0
   11.5290    0.8155   23.5661 C   0  0  0  0  0  0  0  0  0  0  0  0
   12.8832    1.1068   23.5834 C   0  0  0  0  0  0  0  0  0  0  0  0
   13.7384    0.4035   22.7566 C   0  0  0  0  0  0  0  0  0  0  0  0
   11.8813   -0.8894   21.9182 C   0  0  0  0  0  0  0  0  0  0  0  0
   13.2285   -0.5781   21.9345 C   0  0  0  0  0  0  0  0  0  0  0  0
   14.2871   -1.3678   20.7945 Cl  0  0  0  0  0  0  0  0  0  0  0  0
    9.3071   -2.0064   22.6799 C   0  0  0  0  0  0  0  0  0  0  0  0
    9.4771   -2.5871   23.9992 N   0  0  0  0  0  0  0  0  0  0  0  0
    8.5726   -3.3860   24.5526 C   0  0  0  0  0  0  0  0  0  0  0  0
    7.9901   -4.2804   23.9405 O   0  0  0  0  0  0  0  0  0  0  0  0
    8.2153   -3.0314   25.9858 C   0  0  0  0  0  0  0  0  0  0  0  0
    8.7446   -3.9476   26.9889 N   0  0  0  0  0  0  0  0  0  0  0  0
    9.8440   -4.7163   26.8907 C   0  0  0  0  0  0  0  0  0  0  0  0
   10.0225   -5.4672   27.9562 N   0  0  0  0  0  0  0  0  0  0  0  0
    8.9771   -5.1499   28.7887 C   0  0  0  0  0  0  0  0  0  0  0  0
    8.1856   -4.2191   28.2151 C   0  0  0  0  0  0  0  0  0  0  0  0
    8.0609   -1.3996   20.7811 H   0  0  0  0  0  0  0  0  0  0  0  0
    6.1646    0.6859   22.4415 H   0  0  0  0  0  0  0  0  0  0  0  0
    4.2347    2.0362   23.0520 H   0  0  0  0  0  0  0  0  0  0  0  0
    2.8243    3.0658   21.3215 H   0  0  0  0  0  0  0  0  0  0  0  0
    3.3384    2.7590   18.9601 H   0  0  0  0  0  0  0  0  0  0  0  0
    4.7254    1.6560   17.2001 H   0  0  0  0  0  0  0  0  0  0  0  0
    7.7607   -0.9532   18.1760 H   0  0  0  0  0  0  0  0  0  0  0  0
    7.7279    0.2494   23.6982 H   0  0  0  0  0  0  0  0  0  0  0  0
    8.9621   -0.4898   24.7738 H   0  0  0  0  0  0  0  0  0  0  0  0
    9.1674    2.1997   23.3575 H   0  0  0  0  0  0  0  0  0  0  0  0
    8.8389    1.9331   25.1033 H   0  0  0  0  0  0  0  0  0  0  0  0
   13.2669    1.8763   24.2368 H   0  0  0  0  0  0  0  0  0  0  0  0
   14.7963    0.6210   22.7547 H   0  0  0  0  0  0  0  0  0  0  0  0
   11.5147   -1.6846   21.2861 H   0  0  0  0  0  0  0  0  0  0  0  0
    8.2922   -2.2358   22.3229 H   0  0  0  0  0  0  0  0  0  0  0  0
   10.0454   -2.4562   21.9999 H   0  0  0  0  0  0  0  0  0  0  0  0
   10.3093   -2.3769   24.5122 H   0  0  0  0  0  0  0  0  0  0  0  0
    8.6081   -2.0262   26.1984 H   0  0  0  0  0  0  0  0  0  0  0  0
    7.1189   -3.0228   26.0738 H   0  0  0  0  0  0  0  0  0  0  0  0
   10.5042   -4.7169   26.0360 H   0  0  0  0  0  0  0  0  0  0  0  0
    8.8119   -5.5836   29.7639 H   0  0  0  0  0  0  0  0  0  0  0  0
    7.2939   -3.7771   28.6345 H   0  0  0  0  0  0  0  0  0  0  0  0
  1  2  2  0  0  0  0
  2  3  1  0  0  0  0
  2 14  1  0  0  0  0
  3  4  1  0  0  0  0
  3 35  1  0  0  0  0
  4  5  2  0  0  0  0
  4 13  1  0  0  0  0
  5  6  1  0  0  0  0
  5 10  1  0  0  0  0
  6  7  2  0  0  0  0
  6 36  1  0  0  0  0
  7  8  1  0  0  0  0
  7 37  1  0  0  0  0
  8  9  2  0  0  0  0
  8 38  1  0  0  0  0
  9 10  1  0  0  0  0
  9 39  1  0  0  0  0
 10 11  2  0  0  0  0
 11 12  1  0  0  0  0
 11 40  1  0  0  0  0
 12 13  2  0  0  0  0
 13 41  1  0  0  0  0
 14 15  1  0  0  0  0
 14 18  1  0  0  0  0
 14 25  1  0  0  0  0
 15 16  1  0  0  0  0
 15 42  1  0  0  0  0
 15 43  1  0  0  0  0
 16 17  1  0  0  0  0
 16 44  1  0  0  0  0
 16 45  1  0  0  0  0
 17 19  1  0  0  0  0
 18 19  2  0  0  0  0
 18 22  1  0  0  0  0
 19 20  1  0  0  0  0
 20 21  2  0  0  0  0
 20 46  1  0  0  0  0
 21 23  1  0  0  0  0
 21 47  1  0  0  0  0
 22 23  2  0  0  0  0
 22 48  1  0  0  0  0
 23 24  1  0  0  0  0
 25 26  1  0  0  0  0
 25 49  1  0  0  0  0
 25 50  1  0  0  0  0
 26 27  1  0  0  0  0
 26 51  1  0  0  0  0
 27 28  2  0  0  0  0
 27 29  1  0  0  0  0
 29 30  1  0  0  0  0
 29 52  1  0  0  0  0
 29 53  1  0  0  0  0
 30 31  1  0  0  0  0
 30 34  1  0  0  0  0
 31 32  2  0  0  0  0
 31 54  1  0  0  0  0
 32 33  1  0  0  0  0
 33 34  2  0  0  0  0
 33 55  1  0  0  0  0
 34 56  1  0  0  0  0
M  END
> <compound_name>
EDG-MED-70ae9412-1

> <provenance>
{"isomeric_smiles": "c1ccc2c(c1)cncc2NC(=O)[C@@]3(CCOc4c3cc(cc4)Cl)CNC(=O)Cn5ccnc5", "inchi": "InChI=1S/C25H22ClN5O3/c26-18-5-6-22-20(11-18)25(7-10-34-22,15-29-23(32)14-31-9-8-27-16-31)24(33)30-21-13-28-12-17-3-1-2-4-19(17)21/h1-6,8-9,11-13,16H,7,10,14-15H2,(H,29,32)(H,30,33)/t25-/m0/s1", "inchi_key": "BSTRMBRUYYSEKM-VWLOTQADSA-N", "fixed_inchi": "InChI=1/C25H22ClN5O3/c26-18-5-6-22-20(11-18)25(7-10-34-22,15-29-23(32)14-31-9-8-27-16-31)24(33)30-21-13-28-12-17-3-1-2-4-19(17)21/h1-6,8-9,11-13,16H,7,10,14-15H2,(H,29,32)(H,30,33)/t25-/m0/s1/f/h29-30H", "fixed_inchikey": "BSTRMBRUYYSEKM-SEXSXHOANA-N"}

> <data_format>
sdf

$$$$
