LIG(A-305)
  -OEChem-06042511343D

 29 30  0     0  0  0  0  0  0999 V2000
    9.3054    1.0200   21.0418 O   0  0  0  0  0  0  0  0  0  0  0  0
    8.7834    0.0150   21.5088 C   0  0  0  0  0  0  0  0  0  0  0  0
    7.3334   -0.2459   21.3548 C   0  0  0  0  0  0  0  0  0  0  0  0
    6.6844    0.2230   20.1018 C   0  0  0  0  0  0  0  0  0  0  0  0
    7.2554   -0.0060   18.8528 C   0  0  0  0  0  0  0  0  0  0  0  0
    6.7314    0.4380   17.7078 N   0  0  0  0  0  0  0  0  0  0  0  0
    5.5934    1.1390   17.7788 C   0  0  0  0  0  0  0  0  0  0  0  0
    4.9454    1.4150   18.9659 C   0  0  0  0  0  0  0  0  0  0  0  0
    5.5004    0.9471   20.1389 C   0  0  0  0  0  0  0  0  0  0  0  0
    6.6434   -0.8359   22.3229 C   0  0  0  0  0  0  0  0  0  0  0  0
    9.4744   -0.9060   22.1958 N   0  0  0  0  0  0  0  0  0  0  0  0
   10.8174   -0.7820   22.6018 C   0  0  0  0  0  0  0  0  0  0  0  0
   11.7944   -1.6690   22.1788 C   0  0  0  0  0  0  0  0  0  0  0  0
   13.1314   -1.3500   22.3408 C   0  0  0  0  0  0  0  0  0  0  0  0
   13.4974   -0.1650   22.9437 C   0  0  0  0  0  0  0  0  0  0  0  0
   12.5325    0.6910   23.4137 C   0  0  0  0  0  0  0  0  0  0  0  0
   11.1905    0.3880   23.2538 C   0  0  0  0  0  0  0  0  0  0  0  0
    8.1728   -0.5741   18.8076 H   0  0  0  0  0  0  0  0  0  0  0  0
    5.1602    1.5074   16.8606 H   0  0  0  0  0  0  0  0  0  0  0  0
    4.0269    1.9831   18.9761 H   0  0  0  0  0  0  0  0  0  0  0  0
    5.0151    1.1434   21.0835 H   0  0  0  0  0  0  0  0  0  0  0  0
    5.5797   -0.9871   22.2129 H   0  0  0  0  0  0  0  0  0  0  0  0
    7.1456   -1.1648   23.2207 H   0  0  0  0  0  0  0  0  0  0  0  0
    8.9971   -1.7501   22.4401 H   0  0  0  0  0  0  0  0  0  0  0  0
   11.5132   -2.6072   21.7237 H   0  0  0  0  0  0  0  0  0  0  0  0
   13.8923   -2.0329   21.9930 H   0  0  0  0  0  0  0  0  0  0  0  0
   14.5420    0.0894   23.0461 H   0  0  0  0  0  0  0  0  0  0  0  0
   12.8213    1.6053   23.9107 H   0  0  0  0  0  0  0  0  0  0  0  0
   10.4352    1.0594   23.6348 H   0  0  0  0  0  0  0  0  0  0  0  0
  1  2  2  0  0  0  0
  2  3  1  0  0  0  0
  2 11  1  0  0  0  0
  3  4  1  0  0  0  0
  3 10  2  0  0  0  0
  4  5  2  0  0  0  0
  4  9  1  0  0  0  0
  5  6  1  0  0  0  0
  5 18  1  0  0  0  0
  6  7  2  0  0  0  0
  7  8  1  0  0  0  0
  7 19  1  0  0  0  0
  8  9  2  0  0  0  0
  8 20  1  0  0  0  0
  9 21  1  0  0  0  0
 10 22  1  0  0  0  0
 10 23  1  0  0  0  0
 11 12  1  0  0  0  0
 11 24  1  0  0  0  0
 12 13  2  0  0  0  0
 12 17  1  0  0  0  0
 13 14  1  0  0  0  0
 13 25  1  0  0  0  0
 14 15  2  0  0  0  0
 14 26  1  0  0  0  0
 15 16  1  0  0  0  0
 15 27  1  0  0  0  0
 16 17  2  0  0  0  0
 16 28  1  0  0  0  0
 17 29  1  0  0  0  0
M  END
> <compound_name>
BEN-DND-031a96cc-8

> <provenance>
{"isomeric_smiles": "C=C(c1cccnc1)C(=O)Nc2ccccc2", "inchi": "InChI=1S/C14H12N2O/c1-11(12-6-5-9-15-10-12)14(17)16-13-7-3-2-4-8-13/h2-10H,1H2,(H,16,17)", "inchi_key": "SAMABBIQJZLRPK-UHFFFAOYSA-N", "fixed_inchi": "InChI=1/C14H12N2O/c1-11(12-6-5-9-15-10-12)14(17)16-13-7-3-2-4-8-13/h2-10H,1H2,(H,16,17)/f/h16H", "fixed_inchikey": "SAMABBIQJZLRPK-WYUMXYHSNA-N"}

> <data_format>
sdf

$$$$
