LIG(A-305)
  -OEChem-06042511373D

 40 43  0     1  0  0  0  0  0999 V2000
    9.0832    0.6769   21.1759 O   0  0  0  0  0  0  0  0  0  0  0  0
    8.5511   -0.3961   21.4490 C   0  0  0  0  0  0  0  0  0  0  0  0
    9.0132   -1.2571   22.6260 C   0  0  2  0  0  0  0  0  0  0  0  0
    8.0723   -0.9860   23.8490 C   0  0  0  0  0  0  0  0  0  0  0  0
    8.7874   -0.4190   25.0680 C   0  0  0  0  0  0  0  0  0  0  0  0
    9.8305    0.5239   24.6769 N   0  0  0  0  0  0  0  0  0  0  0  0
   10.4672   -0.8842   22.8468 C   0  0  0  0  0  0  0  0  0  0  0  0
   10.7884    0.0808   23.8108 C   0  0  0  0  0  0  0  0  0  0  0  0
   12.0974    0.5537   23.9117 C   0  0  0  0  0  0  0  0  0  0  0  0
   13.0883    0.0476   23.0886 C   0  0  0  0  0  0  0  0  0  0  0  0
   11.4801   -1.4103   22.0488 C   0  0  0  0  0  0  0  0  0  0  0  0
   12.7712   -0.9494   22.1907 C   0  0  0  0  0  0  0  0  0  0  0  0
   14.0430   -1.7056   21.2676 Cl  0  0  0  0  0  0  0  0  0  0  0  0
    7.4871   -0.8880   20.7771 N   0  0  0  0  0  0  0  0  0  0  0  0
    6.7340   -0.2390   19.7831 C   0  0  0  0  0  0  0  0  0  0  0  0
    5.6111    0.5421   20.1912 C   0  0  0  0  0  0  0  0  0  0  0  0
    5.1462    0.6182   21.5292 C   0  0  0  0  0  0  0  0  0  0  0  0
    4.0583    1.3793   21.8523 C   0  0  0  0  0  0  0  0  0  0  0  0
    3.3783    2.0903   20.8763 C   0  0  0  0  0  0  0  0  0  0  0  0
    3.7892    2.0563   19.5763 C   0  0  0  0  0  0  0  0  0  0  0  0
    4.9161    1.2862   19.1972 C   0  0  0  0  0  0  0  0  0  0  0  0
    5.3950    1.2111   17.8672 C   0  0  0  0  0  0  0  0  0  0  0  0
    6.4399    0.4830   17.4891 N   0  0  0  0  0  0  0  0  0  0  0  0
    7.0709   -0.2250   18.4311 C   0  0  0  0  0  0  0  0  0  0  0  0
    8.9431   -2.3198   22.3508 H   0  0  0  0  0  0  0  0  0  0  0  0
    7.2984   -0.2689   23.5377 H   0  0  0  0  0  0  0  0  0  0  0  0
    7.5976   -1.9356   24.1373 H   0  0  0  0  0  0  0  0  0  0  0  0
    8.0553    0.0995   25.7045 H   0  0  0  0  0  0  0  0  0  0  0  0
    9.2440   -1.2453   25.6325 H   0  0  0  0  0  0  0  0  0  0  0  0
    9.5613    1.4836   24.5964 H   0  0  0  0  0  0  0  0  0  0  0  0
   12.3384    1.3182   24.6355 H   0  0  0  0  0  0  0  0  0  0  0  0
   14.0970    0.4287   23.1489 H   0  0  0  0  0  0  0  0  0  0  0  0
   11.2548   -2.1764   21.3216 H   0  0  0  0  0  0  0  0  0  0  0  0
    7.2036   -1.8175   21.0132 H   0  0  0  0  0  0  0  0  0  0  0  0
    5.6592    0.0669   22.3034 H   0  0  0  0  0  0  0  0  0  0  0  0
    3.7251    1.4272   22.8785 H   0  0  0  0  0  0  0  0  0  0  0  0
    2.5137    2.6777   21.1481 H   0  0  0  0  0  0  0  0  0  0  0  0
    3.2509    2.6212   18.8296 H   0  0  0  0  0  0  0  0  0  0  0  0
    4.8775    1.7826   17.1110 H   0  0  0  0  0  0  0  0  0  0  0  0
    7.9071   -0.8337   18.1200 H   0  0  0  0  0  0  0  0  0  0  0  0
  1  2  2  0  0  0  0
  2  3  1  0  0  0  0
  2 14  1  0  0  0  0
  3  4  1  0  0  0  0
  3  7  1  0  0  0  0
  3 25  1  0  0  0  0
  4  5  1  0  0  0  0
  4 26  1  0  0  0  0
  4 27  1  0  0  0  0
  5  6  1  0  0  0  0
  5 28  1  0  0  0  0
  5 29  1  0  0  0  0
  6  8  1  0  0  0  0
  6 30  1  0  0  0  0
  7  8  1  0  0  0  0
  7 11  2  0  0  0  0
  8  9  2  0  0  0  0
  9 10  1  0  0  0  0
  9 31  1  0  0  0  0
 10 12  2  0  0  0  0
 10 32  1  0  0  0  0
 11 12  1  0  0  0  0
 11 33  1  0  0  0  0
 12 13  1  0  0  0  0
 14 15  1  0  0  0  0
 14 34  1  0  0  0  0
 15 16  2  0  0  0  0
 15 24  1  0  0  0  0
 16 17  1  0  0  0  0
 16 21  1  0  0  0  0
 17 18  2  0  0  0  0
 17 35  1  0  0  0  0
 18 19  1  0  0  0  0
 18 36  1  0  0  0  0
 19 20  2  0  0  0  0
 19 37  1  0  0  0  0
 20 21  1  0  0  0  0
 20 38  1  0  0  0  0
 21 22  2  0  0  0  0
 22 23  1  0  0  0  0
 22 39  1  0  0  0  0
 23 24  2  0  0  0  0
 24 40  1  0  0  0  0
M  END
> <compound_name>
ALP-POS-477dc5b7-2

> <provenance>
{"isomeric_smiles": "c1ccc2c(c1)cncc2NC(=O)[C@@H]3CCNc4c3cc(cc4)Cl", "inchi": "InChI=1S/C19H16ClN3O/c20-13-5-6-17-16(9-13)15(7-8-22-17)19(24)23-18-11-21-10-12-3-1-2-4-14(12)18/h1-6,9-11,15,22H,7-8H2,(H,23,24)/t15-/m1/s1", "inchi_key": "TUZBEGQKTWHIIP-OAHLLOKOSA-N", "fixed_inchi": "InChI=1/C19H16ClN3O/c20-13-5-6-17-16(9-13)15(7-8-22-17)19(24)23-18-11-21-10-12-3-1-2-4-14(12)18/h1-6,9-11,15,22H,7-8H2,(H,23,24)/t15-/m1/s1/f/h23H", "fixed_inchikey": "TUZBEGQKTWHIIP-UEBCHADLNA-N"}

> <data_format>
sdf

$$$$
