LIG(A-306)
  -OEChem-06042511423D

 42 44  0     0  0  0  0  0  0999 V2000
   14.1060   -1.2141   21.6777 Cl  0  0  0  0  0  0  0  0  0  0  0  0
   12.6812   -0.8296   22.6051 C   0  0  0  0  0  0  0  0  0  0  0  0
   12.7845    0.0459   23.6635 C   0  0  0  0  0  0  0  0  0  0  0  0
   11.6285    0.4282   24.3228 C   0  0  0  0  0  0  0  0  0  0  0  0
   10.3983   -0.0581   23.9147 C   0  0  0  0  0  0  0  0  0  0  0  0
   11.4629   -1.3418   22.2019 C   0  0  0  0  0  0  0  0  0  0  0  0
   10.2970   -0.9304   22.8403 C   0  0  0  0  0  0  0  0  0  0  0  0
    8.9469   -1.3538   22.3086 C   0  0  0  0  0  0  0  0  0  0  0  0
    8.3568   -0.3515   21.3338 C   0  0  0  0  0  0  0  0  0  0  0  0
    8.6945    0.8317   21.3336 O   0  0  0  0  0  0  0  0  0  0  0  0
    7.4214   -0.8643   20.5015 N   0  0  0  0  0  0  0  0  0  0  0  0
    6.6287   -0.1877   19.5541 C   0  0  0  0  0  0  0  0  0  0  0  0
    6.8371   -0.2413   18.1777 C   0  0  0  0  0  0  0  0  0  0  0  0
    6.1594    0.4718   17.2685 N   0  0  0  0  0  0  0  0  0  0  0  0
    5.2184    1.2927   17.7129 C   0  0  0  0  0  0  0  0  0  0  0  0
    4.8711    1.4446   19.0768 C   0  0  0  0  0  0  0  0  0  0  0  0
    5.5917    0.6712   20.0297 C   0  0  0  0  0  0  0  0  0  0  0  0
    5.2144    0.7702   21.3893 C   0  0  0  0  0  0  0  0  0  0  0  0
    4.1863    1.5715   21.7827 C   0  0  0  0  0  0  0  0  0  0  0  0
    3.8231    2.2847   19.5214 C   0  0  0  0  0  0  0  0  0  0  0  0
    3.4587    2.3398   20.8668 C   0  0  0  0  0  0  0  0  0  0  0  0
    2.3854    3.0732   21.2708 N   0  0  0  0  0  0  0  0  0  0  0  0
    1.1441    2.4041   21.6228 C   0  0  0  0  0  0  0  0  0  0  0  0
    2.5795    4.3383   21.9551 C   0  0  0  0  0  0  0  0  0  0  0  0
   13.7469    0.4261   23.9726 H   0  0  0  0  0  0  0  0  0  0  0  0
   11.6869    1.1088   25.1593 H   0  0  0  0  0  0  0  0  0  0  0  0
    9.5048    0.2458   24.4399 H   0  0  0  0  0  0  0  0  0  0  0  0
   11.4159   -2.0582   21.3950 H   0  0  0  0  0  0  0  0  0  0  0  0
    9.0591   -2.3196   21.7944 H   0  0  0  0  0  0  0  0  0  0  0  0
    8.2555   -1.4679   23.1565 H   0  0  0  0  0  0  0  0  0  0  0  0
    7.2739   -1.8511   20.5674 H   0  0  0  0  0  0  0  0  0  0  0  0
    7.6045   -0.9095   17.8157 H   0  0  0  0  0  0  0  0  0  0  0  0
    4.6812    1.8847   16.9867 H   0  0  0  0  0  0  0  0  0  0  0  0
    5.7528    0.1985   22.1307 H   0  0  0  0  0  0  0  0  0  0  0  0
    3.9252    1.6155   22.8297 H   0  0  0  0  0  0  0  0  0  0  0  0
    3.2947    2.8957   18.8046 H   0  0  0  0  0  0  0  0  0  0  0  0
    0.3957    3.1526   21.9225 H   0  0  0  0  0  0  0  0  0  0  0  0
    0.7719    1.8412   20.7540 H   0  0  0  0  0  0  0  0  0  0  0  0
    1.3250    1.7117   22.4582 H   0  0  0  0  0  0  0  0  0  0  0  0
    1.6010    4.7776   22.1992 H   0  0  0  0  0  0  0  0  0  0  0  0
    3.1473    4.1703   22.8821 H   0  0  0  0  0  0  0  0  0  0  0  0
    3.1376    5.0260   21.3028 H   0  0  0  0  0  0  0  0  0  0  0  0
  1  2  1  0  0  0  0
  2  3  2  0  0  0  0
  2  6  1  0  0  0  0
  3  4  1  0  0  0  0
  3 25  1  0  0  0  0
  4  5  2  0  0  0  0
  4 26  1  0  0  0  0
  5  7  1  0  0  0  0
  5 27  1  0  0  0  0
  6  7  2  0  0  0  0
  6 28  1  0  0  0  0
  7  8  1  0  0  0  0
  8  9  1  0  0  0  0
  8 29  1  0  0  0  0
  8 30  1  0  0  0  0
  9 10  2  0  0  0  0
  9 11  1  0  0  0  0
 11 12  1  0  0  0  0
 11 31  1  0  0  0  0
 12 13  2  0  0  0  0
 12 17  1  0  0  0  0
 13 14  1  0  0  0  0
 13 32  1  0  0  0  0
 14 15  2  0  0  0  0
 15 16  1  0  0  0  0
 15 33  1  0  0  0  0
 16 17  2  0  0  0  0
 16 20  1  0  0  0  0
 17 18  1  0  0  0  0
 18 19  2  0  0  0  0
 18 34  1  0  0  0  0
 19 21  1  0  0  0  0
 19 35  1  0  0  0  0
 20 21  2  0  0  0  0
 20 36  1  0  0  0  0
 21 22  1  0  0  0  0
 22 23  1  0  0  0  0
 22 24  1  0  0  0  0
 23 37  1  0  0  0  0
 23 38  1  0  0  0  0
 23 39  1  0  0  0  0
 24 40  1  0  0  0  0
 24 41  1  0  0  0  0
 24 42  1  0  0  0  0
M  END
> <compound_name>
MAT-POS-90fd5f68-7

> <provenance>
{"isomeric_smiles": "CN(C)c1ccc2c(c1)cncc2NC(=O)Cc3cccc(c3)Cl", "inchi": "InChI=1S/C19H18ClN3O/c1-23(2)16-6-7-17-14(10-16)11-21-12-18(17)22-19(24)9-13-4-3-5-15(20)8-13/h3-8,10-12H,9H2,1-2H3,(H,22,24)", "inchi_key": "VLCYSYPHYNBYLW-UHFFFAOYSA-N", "fixed_inchi": "InChI=1/C19H18ClN3O/c1-23(2)16-6-7-17-14(10-16)11-21-12-18(17)22-19(24)9-13-4-3-5-15(20)8-13/h3-8,10-12H,9H2,1-2H3,(H,22,24)/f/h22H", "fixed_inchikey": "VLCYSYPHYNBYLW-QWOVJGMINA-N"}

> <data_format>
sdf

$$$$
