LIG(A-305)
  -OEChem-06042511333D

 32 33  0     0  0  0  0  0  0999 V2000
    9.3734    0.6166   21.0344 O   0  0  0  0  0  0  0  0  0  0  0  0
    8.7724   -0.4044   21.3633 C   0  0  0  0  0  0  0  0  0  0  0  0
    7.5384   -0.7284   20.9283 N   0  0  0  0  0  0  0  0  0  0  0  0
    6.8294   -0.0563   19.9123 C   0  0  0  0  0  0  0  0  0  0  0  0
    7.2574   -0.0932   18.5843 C   0  0  0  0  0  0  0  0  0  0  0  0
    6.6204    0.5339   17.5914 N   0  0  0  0  0  0  0  0  0  0  0  0
    5.5154    1.2199   17.9044 C   0  0  0  0  0  0  0  0  0  0  0  0
    5.0224    1.3257   19.1894 C   0  0  0  0  0  0  0  0  0  0  0  0
    5.6784    0.6857   20.2324 C   0  0  0  0  0  0  0  0  0  0  0  0
    5.1924    0.8355   21.6514 C   0  0  0  0  0  0  0  0  0  0  0  0
    9.3744   -1.4155   22.3172 C   0  0  0  0  0  0  0  0  0  0  0  0
   10.7324   -0.9616   22.7963 C   0  0  0  0  0  0  0  0  0  0  0  0
   10.8443   -0.1857   23.9424 C   0  0  0  0  0  0  0  0  0  0  0  0
   12.0843    0.2613   24.3684 C   0  0  0  0  0  0  0  0  0  0  0  0
   12.1593    0.9792   25.5215 O   0  0  0  0  0  0  0  0  0  0  0  0
   13.2283   -0.0437   23.6444 C   0  0  0  0  0  0  0  0  0  0  0  0
   13.1204   -0.8246   22.5053 C   0  0  0  0  0  0  0  0  0  0  0  0
   11.8824   -1.2855   22.0913 C   0  0  0  0  0  0  0  0  0  0  0  0
    7.0892   -1.5095   21.3619 H   0  0  0  0  0  0  0  0  0  0  0  0
    8.1478   -0.6567   18.3477 H   0  0  0  0  0  0  0  0  0  0  0  0
    4.9803    1.7175   17.1091 H   0  0  0  0  0  0  0  0  0  0  0  0
    4.1307    1.9037   19.3825 H   0  0  0  0  0  0  0  0  0  0  0  0
    5.9721    1.3201   22.2573 H   0  0  0  0  0  0  0  0  0  0  0  0
    4.2820    1.4529   21.6637 H   0  0  0  0  0  0  0  0  0  0  0  0
    4.9678   -0.1571   22.0687 H   0  0  0  0  0  0  0  0  0  0  0  0
    8.7077   -1.5342   23.1841 H   0  0  0  0  0  0  0  0  0  0  0  0
    9.4790   -2.3808   21.8001 H   0  0  0  0  0  0  0  0  0  0  0  0
    9.9590    0.0710   24.5052 H   0  0  0  0  0  0  0  0  0  0  0  0
   11.6029    0.5803   26.1801 H   0  0  0  0  0  0  0  0  0  0  0  0
   14.1919    0.3237   23.9653 H   0  0  0  0  0  0  0  0  0  0  0  0
   14.0050   -1.0746   21.9384 H   0  0  0  0  0  0  0  0  0  0  0  0
   11.8111   -1.9045   21.2091 H   0  0  0  0  0  0  0  0  0  0  0  0
  1  2  2  0  0  0  0
  2  3  1  0  0  0  0
  2 11  1  0  0  0  0
  3  4  1  0  0  0  0
  3 19  1  0  0  0  0
  4  5  2  0  0  0  0
  4  9  1  0  0  0  0
  5  6  1  0  0  0  0
  5 20  1  0  0  0  0
  6  7  2  0  0  0  0
  7  8  1  0  0  0  0
  7 21  1  0  0  0  0
  8  9  2  0  0  0  0
  8 22  1  0  0  0  0
  9 10  1  0  0  0  0
 10 23  1  0  0  0  0
 10 24  1  0  0  0  0
 10 25  1  0  0  0  0
 11 12  1  0  0  0  0
 11 26  1  0  0  0  0
 11 27  1  0  0  0  0
 12 13  2  0  0  0  0
 12 18  1  0  0  0  0
 13 14  1  0  0  0  0
 13 28  1  0  0  0  0
 14 15  1  0  0  0  0
 14 16  2  0  0  0  0
 15 29  1  0  0  0  0
 16 17  1  0  0  0  0
 16 30  1  0  0  0  0
 17 18  2  0  0  0  0
 17 31  1  0  0  0  0
 18 32  1  0  0  0  0
M  END
> <compound_name>
ALP-POS-95b75b4d-2

> <provenance>
{"isomeric_smiles": "Cc1ccncc1NC(=O)Cc2cccc(c2)O", "inchi": "InChI=1S/C14H14N2O2/c1-10-5-6-15-9-13(10)16-14(18)8-11-3-2-4-12(17)7-11/h2-7,9,17H,8H2,1H3,(H,16,18)", "inchi_key": "JOMCPDPKDFHNEK-UHFFFAOYSA-N", "fixed_inchi": "InChI=1/C14H14N2O2/c1-10-5-6-15-9-13(10)16-14(18)8-11-3-2-4-12(17)7-11/h2-7,9,17H,8H2,1H3,(H,16,18)/f/h16H", "fixed_inchikey": "JOMCPDPKDFHNEK-WYUMXYHSNA-N"}

> <data_format>
sdf

$$$$
