LIG(A-305)
  -OEChem-06042511333D

 37 40  0     1  0  0  0  0  0999 V2000
    9.0051    1.3281   21.1574 O   0  0  0  0  0  0  0  0  0  0  0  0
    8.5441    0.2442   21.5014 C   0  0  0  0  0  0  0  0  0  0  0  0
    8.9002   -0.4089   22.8414 C   0  0  1  0  0  0  0  0  0  0  0  0
   10.4132   -0.4660   22.9242 C   0  0  0  0  0  0  0  0  0  0  0  0
   11.1700   -1.1361   21.9670 C   0  0  0  0  0  0  0  0  0  0  0  0
   12.5530   -1.0683   21.9819 C   0  0  0  0  0  0  0  0  0  0  0  0
   13.2012   -0.3213   22.9378 C   0  0  0  0  0  0  0  0  0  0  0  0
   12.4754    0.3347   23.9239 C   0  0  0  0  0  0  0  0  0  0  0  0
   11.0904    0.2359   23.9261 C   0  0  0  0  0  0  0  0  0  0  0  0
   10.4496    0.8219   24.9922 O   0  0  0  0  0  0  0  0  0  0  0  0
    9.1136    0.3361   25.2473 C   0  0  0  0  0  0  0  0  0  0  0  0
    8.2464    0.3782   24.0095 C   0  0  0  0  0  0  0  0  0  0  0  0
    7.6339   -0.4358   20.7455 N   0  0  0  0  0  0  0  0  0  0  0  0
    7.1498   -0.0117   19.5186 C   0  0  0  0  0  0  0  0  0  0  0  0
    5.8888    0.5084   19.3588 N   0  0  0  0  0  0  0  0  0  0  0  0
    5.8217    0.8604   18.0438 C   0  0  0  0  0  0  0  0  0  0  0  0
    6.9385    0.6063   17.4346 N   0  0  0  0  0  0  0  0  0  0  0  0
    7.7956    0.0382   18.3685 N   0  0  0  0  0  0  0  0  0  0  0  0
    4.8730    0.7545   20.3959 C   0  0  0  0  0  0  0  0  0  0  0  0
    5.0672    1.9075   21.3149 C   0  0  0  0  0  0  0  0  0  0  0  0
    4.0181    1.9626   20.2531 C   0  0  0  0  0  0  0  0  0  0  0  0
    8.5043   -1.4352   22.8492 H   0  0  0  0  0  0  0  0  0  0  0  0
   10.6725   -1.7160   21.2037 H   0  0  0  0  0  0  0  0  0  0  0  0
   13.1253   -1.6043   21.2393 H   0  0  0  0  0  0  0  0  0  0  0  0
   14.2783   -0.2446   22.9216 H   0  0  0  0  0  0  0  0  0  0  0  0
   12.9827    0.9152   24.6803 H   0  0  0  0  0  0  0  0  0  0  0  0
    9.1759   -0.7035   25.6014 H   0  0  0  0  0  0  0  0  0  0  0  0
    8.6515    0.9613   26.0254 H   0  0  0  0  0  0  0  0  0  0  0  0
    7.2683   -0.0688   24.2407 H   0  0  0  0  0  0  0  0  0  0  0  0
    8.1077    1.4256   23.7035 H   0  0  0  0  0  0  0  0  0  0  0  0
    7.2910   -1.3042   21.1036 H   0  0  0  0  0  0  0  0  0  0  0  0
    4.9528    1.2939   17.5710 H   0  0  0  0  0  0  0  0  0  0  0  0
    4.3890   -0.1338   20.8280 H   0  0  0  0  0  0  0  0  0  0  0  0
    4.7763    1.8236   22.3723 H   0  0  0  0  0  0  0  0  0  0  0  0
    5.9686    2.5324   21.2311 H   0  0  0  0  0  0  0  0  0  0  0  0
    2.9539    1.9194   20.5280 H   0  0  0  0  0  0  0  0  0  0  0  0
    4.1462    2.6282   19.3867 H   0  0  0  0  0  0  0  0  0  0  0  0
  1  2  2  0  0  0  0
  2  3  1  0  0  0  0
  2 13  1  0  0  0  0
  3  4  1  0  0  0  0
  3 12  1  0  0  0  0
  3 22  1  0  0  0  0
  4  5  2  0  0  0  0
  4  9  1  0  0  0  0
  5  6  1  0  0  0  0
  5 23  1  0  0  0  0
  6  7  2  0  0  0  0
  6 24  1  0  0  0  0
  7  8  1  0  0  0  0
  7 25  1  0  0  0  0
  8  9  2  0  0  0  0
  8 26  1  0  0  0  0
  9 10  1  0  0  0  0
 10 11  1  0  0  0  0
 11 12  1  0  0  0  0
 11 27  1  0  0  0  0
 11 28  1  0  0  0  0
 12 29  1  0  0  0  0
 12 30  1  0  0  0  0
 13 14  1  0  0  0  0
 13 31  1  0  0  0  0
 14 15  1  0  0  0  0
 14 18  2  0  0  0  0
 15 16  1  0  0  0  0
 15 19  1  0  0  0  0
 16 17  2  0  0  0  0
 16 32  1  0  0  0  0
 17 18  1  0  0  0  0
 19 20  1  0  0  0  0
 19 21  1  0  0  0  0
 19 33  1  0  0  0  0
 20 21  1  0  0  0  0
 20 34  1  0  0  0  0
 20 35  1  0  0  0  0
 21 36  1  0  0  0  0
 21 37  1  0  0  0  0
M  END
> <compound_name>
EDJ-MED-0e996074-1

> <provenance>
{"isomeric_smiles": "c1ccc2c(c1)[C@@H](CCO2)C(=O)Nc3nncn3C4CC4", "inchi": "InChI=1S/C15H16N4O2/c20-14(17-15-18-16-9-19(15)10-5-6-10)12-7-8-21-13-4-2-1-3-11(12)13/h1-4,9-10,12H,5-8H2,(H,17,18,20)/t12-/m1/s1", "inchi_key": "BMUGFKLSYMKHTP-GFCCVEGCSA-N", "fixed_inchi": "InChI=1/C15H16N4O2/c20-14(17-15-18-16-9-19(15)10-5-6-10)12-7-8-21-13-4-2-1-3-11(12)13/h1-4,9-10,12H,5-8H2,(H,17,18,20)/t12-/m1/s1/f/h17H", "fixed_inchikey": "BMUGFKLSYMKHTP-YRIRCGKTNA-N"}

> <data_format>
sdf

$$$$
