LIG(A-306)
  -OEChem-06042511413D

 50 53  0     1  0  0  0  0  0999 V2000
    9.2811    1.0640   21.0761 O   0  0  0  0  0  0  0  0  0  0  0  0
    8.7352    0.1120   21.6202 C   0  0  0  0  0  0  0  0  0  0  0  0
    9.3923   -0.5760   22.8351 C   0  0  1  0  0  0  0  0  0  0  0  0
    8.5903    0.0710   23.9952 C   0  0  0  0  0  0  0  0  0  0  0  0
    9.4624    0.8340   24.9781 C   0  0  0  0  0  0  0  0  0  0  0  0
   10.5283    1.5771   24.3630 O   0  0  0  0  0  0  0  0  0  0  0  0
    9.1333   -2.0980   22.7742 C   0  0  0  0  0  0  0  0  0  0  0  0
    9.8904   -2.8690   23.7461 N   0  0  0  0  0  0  0  0  0  0  0  0
    9.3104   -3.6400   24.6701 C   0  0  0  0  0  0  0  0  0  0  0  0
   10.2445   -4.4399   25.5071 C   0  0  0  0  0  0  0  0  0  0  0  0
    9.8236   -5.2560   26.4341 C   0  0  0  0  0  0  0  0  0  0  0  0
    8.0815   -3.6850   24.8092 O   0  0  0  0  0  0  0  0  0  0  0  0
   10.8963   -0.2949   22.8840 C   0  0  0  0  0  0  0  0  0  0  0  0
   11.3703    0.7811   23.6300 C   0  0  0  0  0  0  0  0  0  0  0  0
   12.7163    1.1221   23.6439 C   0  0  0  0  0  0  0  0  0  0  0  0
   13.6072    0.3931   22.8769 C   0  0  0  0  0  0  0  0  0  0  0  0
   11.8102   -1.0389   22.1380 C   0  0  0  0  0  0  0  0  0  0  0  0
   13.1412   -0.6649   22.1249 C   0  0  0  0  0  0  0  0  0  0  0  0
   14.2342   -1.4839   21.0388 Cl  0  0  0  0  0  0  0  0  0  0  0  0
    7.5232   -0.3520   21.2133 N   0  0  0  0  0  0  0  0  0  0  0  0
    6.7701    0.1260   20.1123 C   0  0  0  0  0  0  0  0  0  0  0  0
    5.6551    0.9939   20.3524 C   0  0  0  0  0  0  0  0  0  0  0  0
    5.1741    1.3259   21.6454 C   0  0  0  0  0  0  0  0  0  0  0  0
    4.0881    2.1409   21.8055 C   0  0  0  0  0  0  0  0  0  0  0  0
    3.4331    2.6769   20.7005 C   0  0  0  0  0  0  0  0  0  0  0  0
    3.8660    2.3989   19.4355 C   0  0  0  0  0  0  0  0  0  0  0  0
    4.9790    1.5459   19.2244 C   0  0  0  0  0  0  0  0  0  0  0  0
    5.4459    1.1869   17.9354 C   0  0  0  0  0  0  0  0  0  0  0  0
    6.4699    0.3759   17.7143 N   0  0  0  0  0  0  0  0  0  0  0  0
    7.1010   -0.1330   18.7823 C   0  0  0  0  0  0  0  0  0  0  0  0
    7.8564    0.7686   23.5654 H   0  0  0  0  0  0  0  0  0  0  0  0
    8.0633   -0.7251   24.5414 H   0  0  0  0  0  0  0  0  0  0  0  0
    8.8242    1.5390   25.5311 H   0  0  0  0  0  0  0  0  0  0  0  0
    9.9049    0.1119   25.6801 H   0  0  0  0  0  0  0  0  0  0  0  0
    8.0622   -2.2734   22.9530 H   0  0  0  0  0  0  0  0  0  0  0  0
    9.4000   -2.4536   21.7679 H   0  0  0  0  0  0  0  0  0  0  0  0
   10.8889   -2.8201   23.7221 H   0  0  0  0  0  0  0  0  0  0  0  0
   11.3073   -4.3419   25.3417 H   0  0  0  0  0  0  0  0  0  0  0  0
   10.5340   -5.8194   27.0208 H   0  0  0  0  0  0  0  0  0  0  0  0
    8.7647   -5.3680   26.6148 H   0  0  0  0  0  0  0  0  0  0  0  0
   13.0639    1.9477   24.2472 H   0  0  0  0  0  0  0  0  0  0  0  0
   14.6562    0.6497   22.8670 H   0  0  0  0  0  0  0  0  0  0  0  0
   11.4810   -1.8999   21.5752 H   0  0  0  0  0  0  0  0  0  0  0  0
    7.1255   -1.1022   21.7416 H   0  0  0  0  0  0  0  0  0  0  0  0
    5.6737    0.9286   22.5166 H   0  0  0  0  0  0  0  0  0  0  0  0
    3.7348    2.3712   22.7997 H   0  0  0  0  0  0  0  0  0  0  0  0
    2.5757    3.3177   20.8447 H   0  0  0  0  0  0  0  0  0  0  0  0
    3.3560    2.8327   18.5880 H   0  0  0  0  0  0  0  0  0  0  0  0
    4.9344    1.6007   17.0789 H   0  0  0  0  0  0  0  0  0  0  0  0
    7.9325   -0.7970   18.5978 H   0  0  0  0  0  0  0  0  0  0  0  0
  1  2  2  0  0  0  0
  2  3  1  0  0  0  0
  2 20  1  0  0  0  0
  3  4  1  0  0  0  0
  3  7  1  0  0  0  0
  3 13  1  0  0  0  0
  4  5  1  0  0  0  0
  4 31  1  0  0  0  0
  4 32  1  0  0  0  0
  5  6  1  0  0  0  0
  5 33  1  0  0  0  0
  5 34  1  0  0  0  0
  6 14  1  0  0  0  0
  7  8  1  0  0  0  0
  7 35  1  0  0  0  0
  7 36  1  0  0  0  0
  8  9  1  0  0  0  0
  8 37  1  0  0  0  0
  9 10  1  0  0  0  0
  9 12  2  0  0  0  0
 10 11  2  0  0  0  0
 10 38  1  0  0  0  0
 11 39  1  0  0  0  0
 11 40  1  0  0  0  0
 13 14  2  0  0  0  0
 13 17  1  0  0  0  0
 14 15  1  0  0  0  0
 15 16  2  0  0  0  0
 15 41  1  0  0  0  0
 16 18  1  0  0  0  0
 16 42  1  0  0  0  0
 17 18  2  0  0  0  0
 17 43  1  0  0  0  0
 18 19  1  0  0  0  0
 20 21  1  0  0  0  0
 20 44  1  0  0  0  0
 21 22  2  0  0  0  0
 21 30  1  0  0  0  0
 22 23  1  0  0  0  0
 22 27  1  0  0  0  0
 23 24  2  0  0  0  0
 23 45  1  0  0  0  0
 24 25  1  0  0  0  0
 24 46  1  0  0  0  0
 25 26  2  0  0  0  0
 25 47  1  0  0  0  0
 26 27  1  0  0  0  0
 26 48  1  0  0  0  0
 27 28  2  0  0  0  0
 28 29  1  0  0  0  0
 28 49  1  0  0  0  0
 29 30  2  0  0  0  0
 30 50  1  0  0  0  0
M  END
> <compound_name>
MAT-POS-e6dd326d-8

> <provenance>
{"isomeric_smiles": "C=CC(=O)NC[C@]1(CCOc2c1cc(cc2)Cl)C(=O)Nc3cncc4c3cccc4", "inchi": "InChI=1S/C23H20ClN3O3/c1-2-21(28)26-14-23(9-10-30-20-8-7-16(24)11-18(20)23)22(29)27-19-13-25-12-15-5-3-4-6-17(15)19/h2-8,11-13H,1,9-10,14H2,(H,26,28)(H,27,29)/t23-/m0/s1", "inchi_key": "DWQRAXAUIMRQLB-QHCPKHFHSA-N", "fixed_inchi": "InChI=1/C23H20ClN3O3/c1-2-21(28)26-14-23(9-10-30-20-8-7-16(24)11-18(20)23)22(29)27-19-13-25-12-15-5-3-4-6-17(15)19/h2-8,11-13H,1,9-10,14H2,(H,26,28)(H,27,29)/t23-/m0/s1/f/h26-27H", "fixed_inchikey": "DWQRAXAUIMRQLB-HZYWXCBGNA-N"}

> <data_format>
sdf

$$$$
