LIG(A-305)
  -OEChem-06042511303D

 27 28  0     0  0  0  0  0  0999 V2000
    8.7405   -0.2786   21.3677 C   0  0  0  0  0  0  0  0  0  0  0  0
   10.6676   -0.5427   22.8366 C   0  0  0  0  0  0  0  0  0  0  0  0
   10.7087    0.2843   23.9396 C   0  0  0  0  0  0  0  0  0  0  0  0
   11.9168    0.7892   24.3535 C   0  0  0  0  0  0  0  0  0  0  0  0
   13.0737    0.4731   23.6554 C   0  0  0  0  0  0  0  0  0  0  0  0
   13.0236   -0.3539   22.5464 C   0  0  0  0  0  0  0  0  0  0  0  0
   11.8095   -0.8598   22.1255 C   0  0  0  0  0  0  0  0  0  0  0  0
    6.7504   -0.0024   19.8779 C   0  0  0  0  0  0  0  0  0  0  0  0
    5.5484    0.6247   20.1640 C   0  0  0  0  0  0  0  0  0  0  0  0
    4.9204    1.2897   19.1231 C   0  0  0  0  0  0  0  0  0  0  0  0
    5.5103    1.2617   17.8650 C   0  0  0  0  0  0  0  0  0  0  0  0
    7.2903    0.0286   18.6029 C   0  0  0  0  0  0  0  0  0  0  0  0
    9.3785   -1.0146   22.4327 N   0  0  0  0  0  0  0  0  0  0  0  0
    7.4304   -0.6965   20.9378 N   0  0  0  0  0  0  0  0  0  0  0  0
    6.6572    0.6626   17.6519 N   0  0  0  0  0  0  0  0  0  0  0  0
    9.2955    0.6384   20.8607 O   0  0  0  0  0  0  0  0  0  0  0  0
    9.8019    0.5317   24.4713 H   0  0  0  0  0  0  0  0  0  0  0  0
   11.9664    1.4311   25.2207 H   0  0  0  0  0  0  0  0  0  0  0  0
   14.0217    0.8760   23.9802 H   0  0  0  0  0  0  0  0  0  0  0  0
   13.9293   -0.6021   22.0131 H   0  0  0  0  0  0  0  0  0  0  0  0
   11.7532   -1.4941   21.2532 H   0  0  0  0  0  0  0  0  0  0  0  0
    5.1198    0.5964   21.1549 H   0  0  0  0  0  0  0  0  0  0  0  0
    3.9928    1.8183   19.2858 H   0  0  0  0  0  0  0  0  0  0  0  0
    5.0102    1.7468   17.0399 H   0  0  0  0  0  0  0  0  0  0  0  0
    8.2271   -0.4675   18.3963 H   0  0  0  0  0  0  0  0  0  0  0  0
    8.9456   -1.8070   22.8625 H   0  0  0  0  0  0  0  0  0  0  0  0
    6.9896   -1.4770   21.3811 H   0  0  0  0  0  0  0  0  0  0  0  0
  1 13  1  0  0  0  0
  1 14  1  0  0  0  0
  1 16  2  0  0  0  0
  2  3  2  0  0  0  0
  2  7  1  0  0  0  0
  2 13  1  0  0  0  0
  3  4  1  0  0  0  0
  3 17  1  0  0  0  0
  4  5  2  0  0  0  0
  4 18  1  0  0  0  0
  5  6  1  0  0  0  0
  5 19  1  0  0  0  0
  6  7  2  0  0  0  0
  6 20  1  0  0  0  0
  7 21  1  0  0  0  0
  8  9  2  0  0  0  0
  8 12  1  0  0  0  0
  8 14  1  0  0  0  0
  9 10  1  0  0  0  0
  9 22  1  0  0  0  0
 10 11  2  0  0  0  0
 10 23  1  0  0  0  0
 11 15  1  0  0  0  0
 11 24  1  0  0  0  0
 12 15  2  0  0  0  0
 12 25  1  0  0  0  0
 13 26  1  0  0  0  0
 14 27  1  0  0  0  0
M  END
> <compound_name>
AAR-POS-d2a4d1df-11

> <provenance>
{"isomeric_smiles": "c1ccc(cc1)NC(=O)Nc2cccnc2", "inchi": "InChI=1S/C12H11N3O/c16-12(14-10-5-2-1-3-6-10)15-11-7-4-8-13-9-11/h1-9H,(H2,14,15,16)", "inchi_key": "WBKYYDBHEGTTON-UHFFFAOYSA-N", "fixed_inchi": "InChI=1/C12H11N3O/c16-12(14-10-5-2-1-3-6-10)15-11-7-4-8-13-9-11/h1-9H,(H2,14,15,16)/f/h14-15H", "fixed_inchikey": "WBKYYDBHEGTTON-VPQZEOPVNA-N"}

> <data_format>
sdf

$$$$
