LIG(A-305)
  -OEChem-06042511343D

 35 37  0     0  0  0  0  0  0999 V2000
   14.1257   -1.4145   21.2374 Cl  0  0  0  0  0  0  0  0  0  0  0  0
   12.8918   -0.7345   22.2586 C   0  0  0  0  0  0  0  0  0  0  0  0
   13.2180    0.2914   23.1216 C   0  0  0  0  0  0  0  0  0  0  0  0
   12.2481    0.7584   23.9957 C   0  0  0  0  0  0  0  0  0  0  0  0
   10.9730    0.2186   23.9737 C   0  0  0  0  0  0  0  0  0  0  0  0
   11.6207   -1.2663   22.2096 C   0  0  0  0  0  0  0  0  0  0  0  0
   10.6348   -0.7663   23.0527 C   0  0  0  0  0  0  0  0  0  0  0  0
    9.1718   -1.1161   22.7987 C   0  0  0  0  0  0  0  0  0  0  0  0
    8.2028   -1.4501   23.9297 C   0  0  0  0  0  0  0  0  0  0  0  0
    8.6316   -2.5291   22.9976 C   0  0  0  0  0  0  0  0  0  0  0  0
    8.5698   -0.2979   21.6398 C   0  0  0  0  0  0  0  0  0  0  0  0
    9.0389    0.7910   21.3379 O   0  0  0  0  0  0  0  0  0  0  0  0
    7.5157   -0.8268   20.9898 N   0  0  0  0  0  0  0  0  0  0  0  0
    6.7958   -0.1346   19.9889 C   0  0  0  0  0  0  0  0  0  0  0  0
    5.6238    0.5665   20.3250 C   0  0  0  0  0  0  0  0  0  0  0  0
    5.0939    0.6064   21.7351 C   0  0  0  0  0  0  0  0  0  0  0  0
    7.2487   -0.0845   18.6719 C   0  0  0  0  0  0  0  0  0  0  0  0
    6.6347    0.6026   17.7060 N   0  0  0  0  0  0  0  0  0  0  0  0
    5.5128    1.2567   18.0341 C   0  0  0  0  0  0  0  0  0  0  0  0
    4.9809    1.2627   19.3071 C   0  0  0  0  0  0  0  0  0  0  0  0
   14.2084    0.7219   23.1165 H   0  0  0  0  0  0  0  0  0  0  0  0
   12.4877    1.5453   24.6956 H   0  0  0  0  0  0  0  0  0  0  0  0
   10.2334    0.5664   24.6797 H   0  0  0  0  0  0  0  0  0  0  0  0
   11.3924   -2.0662   21.5207 H   0  0  0  0  0  0  0  0  0  0  0  0
    8.5567   -1.4533   24.9712 H   0  0  0  0  0  0  0  0  0  0  0  0
    7.1695   -1.0745   23.8947 H   0  0  0  0  0  0  0  0  0  0  0  0
    9.3009   -3.3263   23.3534 H   0  0  0  0  0  0  0  0  0  0  0  0
    7.9138   -2.9475   22.2768 H   0  0  0  0  0  0  0  0  0  0  0  0
    7.2279   -1.7548   21.2266 H   0  0  0  0  0  0  0  0  0  0  0  0
    5.8475    1.0566   22.3979 H   0  0  0  0  0  0  0  0  0  0  0  0
    4.1738    1.2086   21.7639 H   0  0  0  0  0  0  0  0  0  0  0  0
    4.8731   -0.4169   22.0728 H   0  0  0  0  0  0  0  0  0  0  0  0
    8.1450   -0.6313   18.4190 H   0  0  0  0  0  0  0  0  0  0  0  0
    4.9976    1.8084   17.2617 H   0  0  0  0  0  0  0  0  0  0  0  0
    4.0698    1.8052   19.5121 H   0  0  0  0  0  0  0  0  0  0  0  0
  1  2  1  0  0  0  0
  2  3  2  0  0  0  0
  2  6  1  0  0  0  0
  3  4  1  0  0  0  0
  3 21  1  0  0  0  0
  4  5  2  0  0  0  0
  4 22  1  0  0  0  0
  5  7  1  0  0  0  0
  5 23  1  0  0  0  0
  6  7  2  0  0  0  0
  6 24  1  0  0  0  0
  7  8  1  0  0  0  0
  8  9  1  0  0  0  0
  8 10  1  0  0  0  0
  8 11  1  0  0  0  0
  9 10  1  0  0  0  0
  9 25  1  0  0  0  0
  9 26  1  0  0  0  0
 10 27  1  0  0  0  0
 10 28  1  0  0  0  0
 11 12  2  0  0  0  0
 11 13  1  0  0  0  0
 13 14  1  0  0  0  0
 13 29  1  0  0  0  0
 14 15  2  0  0  0  0
 14 17  1  0  0  0  0
 15 16  1  0  0  0  0
 15 20  1  0  0  0  0
 16 30  1  0  0  0  0
 16 31  1  0  0  0  0
 16 32  1  0  0  0  0
 17 18  2  0  0  0  0
 17 33  1  0  0  0  0
 18 19  1  0  0  0  0
 19 20  2  0  0  0  0
 19 34  1  0  0  0  0
 20 35  1  0  0  0  0
M  END
> <compound_name>
JAN-GHE-83b26c96-20

> <provenance>
{"isomeric_smiles": "Cc1ccncc1NC(=O)C2(CC2)c3cccc(c3)Cl", "inchi": "InChI=1S/C16H15ClN2O/c1-11-5-8-18-10-14(11)19-15(20)16(6-7-16)12-3-2-4-13(17)9-12/h2-5,8-10H,6-7H2,1H3,(H,19,20)", "inchi_key": "AIYYCYBWGZIFKY-UHFFFAOYSA-N", "fixed_inchi": "InChI=1/C16H15ClN2O/c1-11-5-8-18-10-14(11)19-15(20)16(6-7-16)12-3-2-4-13(17)9-12/h2-5,8-10H,6-7H2,1H3,(H,19,20)/f/h19H", "fixed_inchikey": "AIYYCYBWGZIFKY-LILDFLRNNA-N"}

> <data_format>
sdf

$$$$
