LIG(A-306)
  -OEChem-06042511423D

 50 53  0     1  0  0  0  0  0999 V2000
   14.1666   -1.5239   21.1904 Cl  0  0  0  0  0  0  0  0  0  0  0  0
   13.0055   -0.7730   22.2521 C   0  0  0  0  0  0  0  0  0  0  0  0
   13.4286    0.1989   23.1359 C   0  0  0  0  0  0  0  0  0  0  0  0
   12.4994    0.8131   23.9584 C   0  0  0  0  0  0  0  0  0  0  0  0
   11.6772   -1.1416   22.1607 C   0  0  0  0  0  0  0  0  0  0  0  0
   10.7240   -0.5083   22.9592 C   0  0  0  0  0  0  0  0  0  0  0  0
   11.1470    0.4705   23.8780 C   0  0  0  0  0  0  0  0  0  0  0  0
   10.2358    1.1047   24.7065 N   0  0  0  0  0  0  0  0  0  0  0  0
    8.7936    0.9353   24.5605 C   0  0  0  0  0  0  0  0  0  0  0  0
    8.4713   -0.4715   24.0978 C   0  0  0  0  0  0  0  0  0  0  0  0
    9.2466   -0.8177   22.8089 C   0  0  1  0  0  0  0  0  0  0  0  0
    8.7011   -0.0299   21.6156 C   0  0  0  0  0  0  0  0  0  0  0  0
    9.2329    1.0104   21.2215 O   0  0  0  0  0  0  0  0  0  0  0  0
    7.5785   -0.5538   21.0578 N   0  0  0  0  0  0  0  0  0  0  0  0
    6.8237   -0.0310   19.9810 C   0  0  0  0  0  0  0  0  0  0  0  0
    7.0611   -0.3446   18.6414 C   0  0  0  0  0  0  0  0  0  0  0  0
    6.3873    0.1641   17.5975 N   0  0  0  0  0  0  0  0  0  0  0  0
    5.4131    1.0254   17.8594 C   0  0  0  0  0  0  0  0  0  0  0  0
    5.7826    0.9094   20.2651 C   0  0  0  0  0  0  0  0  0  0  0  0
    5.0538    1.4492   19.1644 C   0  0  0  0  0  0  0  0  0  0  0  0
    4.0337    2.3976   19.4195 C   0  0  0  0  0  0  0  0  0  0  0  0
    3.7614    2.8063   20.6923 C   0  0  0  0  0  0  0  0  0  0  0  0
    5.4613    1.3661   21.5691 C   0  0  0  0  0  0  0  0  0  0  0  0
    4.4762    2.3196   21.7882 C   0  0  0  0  0  0  0  0  0  0  0  0
    4.2600    2.9060   23.1854 C   0  0  0  0  0  0  0  0  0  0  0  0
    4.8645    2.0735   24.1977 O   0  0  0  0  0  0  0  0  0  0  0  0
    2.7732    3.0007   23.5170 C   0  0  0  0  0  0  0  0  0  0  0  0
    4.9153    4.2782   23.2990 C   0  0  0  0  0  0  0  0  0  0  0  0
   14.4711    0.4768   23.1854 H   0  0  0  0  0  0  0  0  0  0  0  0
   12.8219    1.5620   24.6666 H   0  0  0  0  0  0  0  0  0  0  0  0
   11.3772   -1.9182   21.4728 H   0  0  0  0  0  0  0  0  0  0  0  0
   10.5602    1.8823   25.2450 H   0  0  0  0  0  0  0  0  0  0  0  0
    8.3071    1.1184   25.5300 H   0  0  0  0  0  0  0  0  0  0  0  0
    8.4172    1.6558   23.8194 H   0  0  0  0  0  0  0  0  0  0  0  0
    8.7502   -1.1836   24.8884 H   0  0  0  0  0  0  0  0  0  0  0  0
    7.3918   -0.5474   23.9002 H   0  0  0  0  0  0  0  0  0  0  0  0
    9.1268   -1.8923   22.6066 H   0  0  0  0  0  0  0  0  0  0  0  0
    7.2465   -1.4095   21.4549 H   0  0  0  0  0  0  0  0  0  0  0  0
    7.8488   -1.0520   18.4281 H   0  0  0  0  0  0  0  0  0  0  0  0
    4.8582    1.4299   17.0259 H   0  0  0  0  0  0  0  0  0  0  0  0
    3.4641    2.8025   18.5961 H   0  0  0  0  0  0  0  0  0  0  0  0
    2.9722    3.5252   20.8564 H   0  0  0  0  0  0  0  0  0  0  0  0
    5.9976    0.9611   22.4145 H   0  0  0  0  0  0  0  0  0  0  0  0
    4.5887    2.3688   25.0574 H   0  0  0  0  0  0  0  0  0  0  0  0
    2.6479    3.4244   24.5243 H   0  0  0  0  0  0  0  0  0  0  0  0
    2.2743    3.6493   22.7818 H   0  0  0  0  0  0  0  0  0  0  0  0
    2.3255    1.9964   23.4835 H   0  0  0  0  0  0  0  0  0  0  0  0
    4.7490    4.6821   24.3085 H   0  0  0  0  0  0  0  0  0  0  0  0
    5.9958    4.1848   23.1149 H   0  0  0  0  0  0  0  0  0  0  0  0
    4.4740    4.9578   22.5550 H   0  0  0  0  0  0  0  0  0  0  0  0
  1  2  1  0  0  0  0
  2  3  1  0  0  0  0
  2  5  2  0  0  0  0
  3  4  2  0  0  0  0
  3 29  1  0  0  0  0
  4  7  1  0  0  0  0
  4 30  1  0  0  0  0
  5  6  1  0  0  0  0
  5 31  1  0  0  0  0
  6  7  2  0  0  0  0
  6 11  1  0  0  0  0
  7  8  1  0  0  0  0
  8  9  1  0  0  0  0
  8 32  1  0  0  0  0
  9 10  1  0  0  0  0
  9 33  1  0  0  0  0
  9 34  1  0  0  0  0
 10 11  1  0  0  0  0
 10 35  1  0  0  0  0
 10 36  1  0  0  0  0
 11 12  1  0  0  0  0
 11 37  1  0  0  0  0
 12 13  2  0  0  0  0
 12 14  1  0  0  0  0
 14 15  1  0  0  0  0
 14 38  1  0  0  0  0
 15 16  2  0  0  0  0
 15 19  1  0  0  0  0
 16 17  1  0  0  0  0
 16 39  1  0  0  0  0
 17 18  2  0  0  0  0
 18 20  1  0  0  0  0
 18 40  1  0  0  0  0
 19 20  2  0  0  0  0
 19 23  1  0  0  0  0
 20 21  1  0  0  0  0
 21 22  2  0  0  0  0
 21 41  1  0  0  0  0
 22 24  1  0  0  0  0
 22 42  1  0  0  0  0
 23 24  2  0  0  0  0
 23 43  1  0  0  0  0
 24 25  1  0  0  0  0
 25 26  1  0  0  0  0
 25 27  1  0  0  0  0
 25 28  1  0  0  0  0
 26 44  1  0  0  0  0
 27 45  1  0  0  0  0
 27 46  1  0  0  0  0
 27 47  1  0  0  0  0
 28 48  1  0  0  0  0
 28 49  1  0  0  0  0
 28 50  1  0  0  0  0
M  END
> <compound_name>
MAT-POS-86c60949-2

> <provenance>
{"isomeric_smiles": "CC(C)(c1ccc2cncc(c2c1)NC(=O)[C@@H]3CCNc4c3cc(cc4)Cl)O", "inchi": "InChI=1S/C22H22ClN3O2/c1-22(2,28)14-4-3-13-11-24-12-20(17(13)9-14)26-21(27)16-7-8-25-19-6-5-15(23)10-18(16)19/h3-6,9-12,16,25,28H,7-8H2,1-2H3,(H,26,27)/t16-/m1/s1", "inchi_key": "KLGKDNQJTAVAQU-MRXNPFEDSA-N", "fixed_inchi": "InChI=1/C22H22ClN3O2/c1-22(2,28)14-4-3-13-11-24-12-20(17(13)9-14)26-21(27)16-7-8-25-19-6-5-15(23)10-18(16)19/h3-6,9-12,16,25,28H,7-8H2,1-2H3,(H,26,27)/t16-/m1/s1/f/h26H", "fixed_inchikey": "KLGKDNQJTAVAQU-BNKIIVJNNA-N"}

> <data_format>
sdf

$$$$
