LIG(A-305)
  -OEChem-06042511363D

 37 39  0     0  0  0  0  0  0999 V2000
    9.2356    1.2383   21.0885 O   0  0  0  0  0  0  0  0  0  0  0  0
    9.2227    0.0923   21.4946 C   0  0  0  0  0  0  0  0  0  0  0  0
    9.9617   -0.3036   22.5506 N   0  0  0  0  0  0  0  0  0  0  0  0
   10.0408   -1.6825   23.0507 C   0  0  0  0  0  0  0  0  0  0  0  0
   11.4878   -2.1694   23.0657 C   0  0  0  0  0  0  0  0  0  0  0  0
   10.8047    0.6425   23.2945 C   0  0  0  0  0  0  0  0  0  0  0  0
   12.2627    0.1806   23.3115 C   0  0  0  0  0  0  0  0  0  0  0  0
   12.3978   -1.2363   23.8516 C   0  0  0  0  0  0  0  0  0  0  0  0
   13.8428   -1.7142   23.8496 C   0  0  0  0  0  0  0  0  0  0  0  0
    8.3557   -0.9628   20.8097 C   0  0  0  0  0  0  0  0  0  0  0  0
    7.4867   -0.3529   19.8356 N   0  0  0  0  0  0  0  0  0  0  0  0
    6.3676    0.3990   20.0196 C   0  0  0  0  0  0  0  0  0  0  0  0
    5.9846    0.7759   18.7386 C   0  0  0  0  0  0  0  0  0  0  0  0
    6.8756    0.2319   17.8406 N   0  0  0  0  0  0  0  0  0  0  0  0
    7.7646   -0.4430   18.5066 N   0  0  0  0  0  0  0  0  0  0  0  0
    5.6386    0.7771   21.1476 C   0  0  0  0  0  0  0  0  0  0  0  0
    4.4886    1.5350   20.9426 C   0  0  0  0  0  0  0  0  0  0  0  0
    4.1065    1.9309   19.6616 C   0  0  0  0  0  0  0  0  0  0  0  0
    4.8525    1.5609   18.5476 C   0  0  0  0  0  0  0  0  0  0  0  0
    9.6368   -1.7195   24.0732 H   0  0  0  0  0  0  0  0  0  0  0  0
    9.4460   -2.3381   22.3975 H   0  0  0  0  0  0  0  0  0  0  0  0
   11.5213   -3.1681   23.5257 H   0  0  0  0  0  0  0  0  0  0  0  0
   11.8522   -2.2307   22.0296 H   0  0  0  0  0  0  0  0  0  0  0  0
   10.7459    1.6308   22.8151 H   0  0  0  0  0  0  0  0  0  0  0  0
   10.4380    0.7146   24.3291 H   0  0  0  0  0  0  0  0  0  0  0  0
   12.6581    0.2103   22.2855 H   0  0  0  0  0  0  0  0  0  0  0  0
   12.8453    0.8622   23.9489 H   0  0  0  0  0  0  0  0  0  0  0  0
   12.0494   -1.2306   24.8949 H   0  0  0  0  0  0  0  0  0  0  0  0
   13.8912   -2.7389   24.2467 H   0  0  0  0  0  0  0  0  0  0  0  0
   14.2318   -1.7011   22.8208 H   0  0  0  0  0  0  0  0  0  0  0  0
   14.4501   -1.0479   24.4797 H   0  0  0  0  0  0  0  0  0  0  0  0
    9.0061   -1.6934   20.3063 H   0  0  0  0  0  0  0  0  0  0  0  0
    7.7453   -1.4760   21.5673 H   0  0  0  0  0  0  0  0  0  0  0  0
    5.9539    0.4931   22.1407 H   0  0  0  0  0  0  0  0  0  0  0  0
    3.8827    1.8208   21.7897 H   0  0  0  0  0  0  0  0  0  0  0  0
    3.2193    2.5330   19.5325 H   0  0  0  0  0  0  0  0  0  0  0  0
    4.5594    1.8759   17.5570 H   0  0  0  0  0  0  0  0  0  0  0  0
  1  2  2  0  0  0  0
  2  3  1  0  0  0  0
  2 10  1  0  0  0  0
  3  4  1  0  0  0  0
  3  6  1  0  0  0  0
  4  5  1  0  0  0  0
  4 20  1  0  0  0  0
  4 21  1  0  0  0  0
  5  8  1  0  0  0  0
  5 22  1  0  0  0  0
  5 23  1  0  0  0  0
  6  7  1  0  0  0  0
  6 24  1  0  0  0  0
  6 25  1  0  0  0  0
  7  8  1  0  0  0  0
  7 26  1  0  0  0  0
  7 27  1  0  0  0  0
  8  9  1  0  0  0  0
  8 28  1  0  0  0  0
  9 29  1  0  0  0  0
  9 30  1  0  0  0  0
  9 31  1  0  0  0  0
 10 11  1  0  0  0  0
 10 32  1  0  0  0  0
 10 33  1  0  0  0  0
 11 12  1  0  0  0  0
 11 15  1  0  0  0  0
 12 13  2  0  0  0  0
 12 16  1  0  0  0  0
 13 14  1  0  0  0  0
 13 19  1  0  0  0  0
 14 15  2  0  0  0  0
 16 17  2  0  0  0  0
 16 34  1  0  0  0  0
 17 18  1  0  0  0  0
 17 35  1  0  0  0  0
 18 19  2  0  0  0  0
 18 36  1  0  0  0  0
 19 37  1  0  0  0  0
M  END
> <compound_name>
ANT-DIA-62e4526e-1

> <provenance>
{"isomeric_smiles": "CC1CCN(CC1)C(=O)Cn2c3ccccc3nn2", "inchi": "InChI=1S/C14H18N4O/c1-11-6-8-17(9-7-11)14(19)10-18-13-5-3-2-4-12(13)15-16-18/h2-5,11H,6-10H2,1H3", "inchi_key": "CTUYCKVPYLPOTM-UHFFFAOYSA-N", "fixed_inchi": "InChI=1/C14H18N4O/c1-11-6-8-17(9-7-11)14(19)10-18-13-5-3-2-4-12(13)15-16-18/h2-5,11H,6-10H2,1H3", "fixed_inchikey": "CTUYCKVPYLPOTM-UHFFFAOYNA-N"}

> <data_format>
sdf

$$$$
