LIG(A-305)
  -OEChem-06042511313D

 38 40  0     1  0  0  0  0  0999 V2000
   14.1632   -1.5714   21.0809 Cl  0  0  0  0  0  0  0  0  0  0  0  0
   12.8981   -0.9154   22.0779 C   0  0  0  0  0  0  0  0  0  0  0  0
   13.2001    0.0796   22.9859 C   0  0  0  0  0  0  0  0  0  0  0  0
   12.1861    0.5746   23.7889 C   0  0  0  0  0  0  0  0  0  0  0  0
   10.8921    0.0925   23.6609 C   0  0  0  0  0  0  0  0  0  0  0  0
   11.6152   -1.4044   21.9369 C   0  0  0  0  0  0  0  0  0  0  0  0
   10.5891   -0.8815   22.7158 C   0  0  0  0  0  0  0  0  0  0  0  0
    9.1441   -1.2925   22.4568 C   0  0  1  0  0  0  0  0  0  0  0  0
    8.3581   -1.4455   23.7638 C   0  0  0  0  0  0  0  0  0  0  0  0
    8.5441   -0.2775   21.4778 C   0  0  0  0  0  0  0  0  0  0  0  0
    9.1211    0.7735   21.2038 O   0  0  0  0  0  0  0  0  0  0  0  0
    7.3602   -0.6415   20.9168 N   0  0  0  0  0  0  0  0  0  0  0  0
    6.6532    0.0645   19.9147 C   0  0  0  0  0  0  0  0  0  0  0  0
    5.5312    0.8525   20.2227 C   0  0  0  0  0  0  0  0  0  0  0  0
    4.8552    1.4995   19.1977 C   0  0  0  0  0  0  0  0  0  0  0  0
    5.3362    1.3415   17.9107 C   0  0  0  0  0  0  0  0  0  0  0  0
    6.4082    0.6075   17.5927 N   0  0  0  0  0  0  0  0  0  0  0  0
    7.0492   -0.0175   18.5838 C   0  0  0  0  0  0  0  0  0  0  0  0
    5.0681    1.0364   21.5637 N   0  0  0  0  0  0  0  0  0  0  0  0
    3.7351    1.1654   21.8147 N   0  0  0  0  0  0  0  0  0  0  0  0
    3.6761    1.4274   23.1137 C   0  0  0  0  0  0  0  0  0  0  0  0
    4.9370    1.4624   23.7057 C   0  0  0  0  0  0  0  0  0  0  0  0
    5.8111    1.2024   22.6887 C   0  0  0  0  0  0  0  0  0  0  0  0
   14.2060    0.4640   23.0684 H   0  0  0  0  0  0  0  0  0  0  0  0
   12.4042    1.3401   24.5188 H   0  0  0  0  0  0  0  0  0  0  0  0
   10.1121    0.4773   24.3012 H   0  0  0  0  0  0  0  0  0  0  0  0
   11.4092   -2.1897   21.2246 H   0  0  0  0  0  0  0  0  0  0  0  0
    9.1572   -2.2724   21.9572 H   0  0  0  0  0  0  0  0  0  0  0  0
    7.3232   -1.7418   23.5373 H   0  0  0  0  0  0  0  0  0  0  0  0
    8.8320   -2.2171   24.3883 H   0  0  0  0  0  0  0  0  0  0  0  0
    8.3551   -0.4873   24.3040 H   0  0  0  0  0  0  0  0  0  0  0  0
    6.9486   -1.4919   21.2445 H   0  0  0  0  0  0  0  0  0  0  0  0
    3.9839    2.1052   19.3981 H   0  0  0  0  0  0  0  0  0  0  0  0
    4.8123    1.8433   17.1106 H   0  0  0  0  0  0  0  0  0  0  0  0
    7.9156   -0.6146   18.3404 H   0  0  0  0  0  0  0  0  0  0  0  0
    2.7547    1.5947   23.6517 H   0  0  0  0  0  0  0  0  0  0  0  0
    5.1720    1.6534   24.7424 H   0  0  0  0  0  0  0  0  0  0  0  0
    6.8867    1.1407   22.7646 H   0  0  0  0  0  0  0  0  0  0  0  0
  1  2  1  0  0  0  0
  2  3  2  0  0  0  0
  2  6  1  0  0  0  0
  3  4  1  0  0  0  0
  3 24  1  0  0  0  0
  4  5  2  0  0  0  0
  4 25  1  0  0  0  0
  5  7  1  0  0  0  0
  5 26  1  0  0  0  0
  6  7  2  0  0  0  0
  6 27  1  0  0  0  0
  7  8  1  0  0  0  0
  8  9  1  0  0  0  0
  8 10  1  0  0  0  0
  8 28  1  0  0  0  0
  9 29  1  0  0  0  0
  9 30  1  0  0  0  0
  9 31  1  0  0  0  0
 10 11  2  0  0  0  0
 10 12  1  0  0  0  0
 12 13  1  0  0  0  0
 12 32  1  0  0  0  0
 13 14  2  0  0  0  0
 13 18  1  0  0  0  0
 14 15  1  0  0  0  0
 14 19  1  0  0  0  0
 15 16  2  0  0  0  0
 15 33  1  0  0  0  0
 16 17  1  0  0  0  0
 16 34  1  0  0  0  0
 17 18  2  0  0  0  0
 18 35  1  0  0  0  0
 19 20  1  0  0  0  0
 19 23  1  0  0  0  0
 20 21  2  0  0  0  0
 21 22  1  0  0  0  0
 21 36  1  0  0  0  0
 22 23  2  0  0  0  0
 22 37  1  0  0  0  0
 23 38  1  0  0  0  0
M  END
> <compound_name>
JAN-GHE-83b26c96-3

> <provenance>
{"isomeric_smiles": "C[C@H](c1cccc(c1)Cl)C(=O)Nc2cnccc2n3cccn3", "inchi": "InChI=1S/C17H15ClN4O/c1-12(13-4-2-5-14(18)10-13)17(23)21-15-11-19-8-6-16(15)22-9-3-7-20-22/h2-12H,1H3,(H,21,23)/t12-/m1/s1", "inchi_key": "LMUJWKIRCRWFKF-GFCCVEGCSA-N", "fixed_inchi": "InChI=1/C17H15ClN4O/c1-12(13-4-2-5-14(18)10-13)17(23)21-15-11-19-8-6-16(15)22-9-3-7-20-22/h2-12H,1H3,(H,21,23)/t12-/m1/s1/f/h21H", "fixed_inchikey": "LMUJWKIRCRWFKF-OTPOHHRKNA-N"}

> <data_format>
sdf

$$$$
