LIG(A-306)
  -OEChem-06042511403D

 44 47  0     1  0  0  0  0  0999 V2000
    9.0591    0.9451   21.1535 O   0  0  0  0  0  0  0  0  0  0  0  0
    8.5532   -0.1460   21.4256 C   0  0  0  0  0  0  0  0  0  0  0  0
    9.1464   -1.0370   22.5334 C   0  0  1  0  0  0  0  0  0  0  0  0
   10.5694   -0.5870   22.8062 C   0  0  0  0  0  0  0  0  0  0  0  0
   11.6183   -1.1659   22.0969 C   0  0  0  0  0  0  0  0  0  0  0  0
   12.9184   -0.8039   22.3907 C   0  0  0  0  0  0  0  0  0  0  0  0
   14.2202   -1.5238   21.4824 Cl  0  0  0  0  0  0  0  0  0  0  0  0
   13.2065    0.1191   23.3757 C   0  0  0  0  0  0  0  0  0  0  0  0
   12.1656    0.6860   24.0859 C   0  0  0  0  0  0  0  0  0  0  0  0
   10.8396    0.3430   23.8232 C   0  0  0  0  0  0  0  0  0  0  0  0
    9.7387    0.9209   24.6844 C   0  0  0  0  0  0  0  0  0  0  0  0
    8.3547    0.4099   24.3186 C   0  0  0  0  0  0  0  0  0  0  0  0
    8.3866   -0.9611   23.7945 N   0  3  1  0  0  0  0  0  0  0  0  0
    7.0517   -1.5622   23.7618 C   0  0  0  0  0  0  0  0  0  0  0  0
    7.4841   -0.6580   20.7717 N   0  0  0  0  0  0  0  0  0  0  0  0
    6.7458   -0.0680   19.7279 C   0  0  0  0  0  0  0  0  0  0  0  0
    5.6579    0.8000   20.0591 C   0  0  0  0  0  0  0  0  0  0  0  0
    5.2061    1.0299   21.3852 C   0  0  0  0  0  0  0  0  0  0  0  0
    4.1491    1.8598   21.6335 C   0  0  0  0  0  0  0  0  0  0  0  0
    3.4939    2.5039   20.5916 C   0  0  0  0  0  0  0  0  0  0  0  0
    3.8947    2.3209   19.2986 C   0  0  0  0  0  0  0  0  0  0  0  0
    4.9827    1.4640   18.9963 C   0  0  0  0  0  0  0  0  0  0  0  0
    5.4324    1.2201   17.6762 C   0  0  0  0  0  0  0  0  0  0  0  0
    6.4354    0.4101   17.3690 N   0  0  0  0  0  0  0  0  0  0  0  0
    7.0606   -0.2119   18.3758 C   0  0  0  0  0  0  0  0  0  0  0  0
    9.1632   -2.0774   22.1766 H   0  0  0  0  0  0  0  0  0  0  0  0
   11.4170   -1.8922   21.3233 H   0  0  0  0  0  0  0  0  0  0  0  0
   14.2293    0.3938   23.5879 H   0  0  0  0  0  0  0  0  0  0  0  0
   12.3830    1.4083   24.8589 H   0  0  0  0  0  0  0  0  0  0  0  0
    9.9417    0.6576   25.7329 H   0  0  0  0  0  0  0  0  0  0  0  0
    9.7471    2.0152   24.5729 H   0  0  0  0  0  0  0  0  0  0  0  0
    7.7213    0.4300   25.2177 H   0  0  0  0  0  0  0  0  0  0  0  0
    7.9246    1.0715   23.5522 H   0  0  0  0  0  0  0  0  0  0  0  0
    8.9100   -1.4945   24.4590 H   0  0  0  0  0  0  0  0  0  0  0  0
    7.1194   -2.5855   23.3642 H   0  0  0  0  0  0  0  0  0  0  0  0
    6.6378   -1.5914   24.7805 H   0  0  0  0  0  0  0  0  0  0  0  0
    6.3947   -0.9608   23.1161 H   0  0  0  0  0  0  0  0  0  0  0  0
    7.1821   -1.5649   21.0656 H   0  0  0  0  0  0  0  0  0  0  0  0
    5.7049    0.5420   22.2096 H   0  0  0  0  0  0  0  0  0  0  0  0
    3.8199    2.0166   22.6501 H   0  0  0  0  0  0  0  0  0  0  0  0
    2.6597    3.1554   20.8059 H   0  0  0  0  0  0  0  0  0  0  0  0
    3.3785    2.8333   18.5002 H   0  0  0  0  0  0  0  0  0  0  0  0
    4.9257    1.7264   16.8679 H   0  0  0  0  0  0  0  0  0  0  0  0
    7.8724   -0.8774   18.1220 H   0  0  0  0  0  0  0  0  0  0  0  0
  1  2  2  0  0  0  0
  2  3  1  0  0  0  0
  2 15  1  0  0  0  0
  3  4  1  0  0  0  0
  3 13  1  0  0  0  0
  3 26  1  0  0  0  0
  4  5  2  0  0  0  0
  4 10  1  0  0  0  0
  5  6  1  0  0  0  0
  5 27  1  0  0  0  0
  6  7  1  0  0  0  0
  6  8  2  0  0  0  0
  8  9  1  0  0  0  0
  8 28  1  0  0  0  0
  9 10  2  0  0  0  0
  9 29  1  0  0  0  0
 10 11  1  0  0  0  0
 11 12  1  0  0  0  0
 11 30  1  0  0  0  0
 11 31  1  0  0  0  0
 12 13  1  0  0  0  0
 12 32  1  0  0  0  0
 12 33  1  0  0  0  0
 13 14  1  0  0  0  0
 13 34  1  0  0  0  0
 14 35  1  0  0  0  0
 14 36  1  0  0  0  0
 14 37  1  0  0  0  0
 15 16  1  0  0  0  0
 15 38  1  0  0  0  0
 16 17  2  0  0  0  0
 16 25  1  0  0  0  0
 17 18  1  0  0  0  0
 17 22  1  0  0  0  0
 18 19  2  0  0  0  0
 18 39  1  0  0  0  0
 19 20  1  0  0  0  0
 19 40  1  0  0  0  0
 20 21  2  0  0  0  0
 20 41  1  0  0  0  0
 21 22  1  0  0  0  0
 21 42  1  0  0  0  0
 22 23  2  0  0  0  0
 23 24  1  0  0  0  0
 23 43  1  0  0  0  0
 24 25  2  0  0  0  0
 25 44  1  0  0  0  0
M  CHG  1  13   1
M  END
> <compound_name>
MAT-POS-fb82b63d-3

> <provenance>
{"isomeric_smiles": "C[N@@H+]1CCc2ccc(cc2[C@@H]1C(=O)Nc3cncc4c3cccc4)Cl", "inchi": "InChI=1S/C20H18ClN3O/c1-24-9-8-13-6-7-15(21)10-17(13)19(24)20(25)23-18-12-22-11-14-4-2-3-5-16(14)18/h2-7,10-12,19H,8-9H2,1H3,(H,23,25)/p+1/t19-/m1/s1", "inchi_key": "NHDKKXCWRNZVNJ-LJQANCHMSA-O", "fixed_inchi": "InChI=1/C20H18ClN3O/c1-24-9-8-13-6-7-15(21)10-17(13)19(24)20(25)23-18-12-22-11-14-4-2-3-5-16(14)18/h2-7,10-12,19H,8-9H2,1H3,(H,23,25)/p+1/t19-/m1/s1/fC20H19ClN3O/h23-24H/q+1", "fixed_inchikey": "NHDKKXCWRNZVNJ-LSLPBOHNNA-O"}

> <data_format>
sdf

$$$$
