LIG(A-305)
  -OEChem-06042511323D

 35 37  0     1  0  0  0  0  0999 V2000
    9.6902    1.0274   21.1367 O   0  0  0  0  0  0  0  0  0  0  0  0
    9.2251    0.0444   21.7116 C   0  0  0  0  0  0  0  0  0  0  0  0
    9.9221   -0.6057   22.8735 C   0  0  1  0  0  0  0  0  0  0  0  0
   10.9850   -1.6178   22.4334 C   0  0  0  0  0  0  0  0  0  0  0  0
   12.3190   -0.9059   22.7385 C   0  0  0  0  0  0  0  0  0  0  0  0
   13.4700   -1.0409   21.7965 C   0  0  0  0  0  0  0  0  0  0  0  0
   13.5160   -1.6990   23.1504 C   0  0  0  0  0  0  0  0  0  0  0  0
   12.0601    0.4661   23.4056 C   0  0  0  0  0  0  0  0  0  0  0  0
   10.5811    0.4132   23.8246 C   0  0  0  0  0  0  0  0  0  0  0  0
    8.0641   -0.5435   21.3615 N   0  0  0  0  0  0  0  0  0  0  0  0
    7.2311   -0.0823   20.3206 C   0  0  0  0  0  0  0  0  0  0  0  0
    5.9721    0.4618   20.6326 C   0  0  0  0  0  0  0  0  0  0  0  0
    5.4852    0.5897   22.0556 C   0  0  0  0  0  0  0  0  0  0  0  0
    7.6421   -0.1082   18.9866 C   0  0  0  0  0  0  0  0  0  0  0  0
    6.8991    0.3669   17.9796 N   0  0  0  0  0  0  0  0  0  0  0  0
    5.7012    0.8790   18.2887 C   0  0  0  0  0  0  0  0  0  0  0  0
    5.2052    0.9409   19.5767 C   0  0  0  0  0  0  0  0  0  0  0  0
    9.1659   -1.1540   23.4545 H   0  0  0  0  0  0  0  0  0  0  0  0
   10.8987   -2.5517   23.0083 H   0  0  0  0  0  0  0  0  0  0  0  0
   10.8951   -1.8385   21.3595 H   0  0  0  0  0  0  0  0  0  0  0  0
   13.3700   -1.6546   20.8890 H   0  0  0  0  0  0  0  0  0  0  0  0
   14.1122   -0.1736   21.5836 H   0  0  0  0  0  0  0  0  0  0  0  0
   14.1916   -1.3130   23.9279 H   0  0  0  0  0  0  0  0  0  0  0  0
   13.4494   -2.7939   23.2333 H   0  0  0  0  0  0  0  0  0  0  0  0
   12.7091    0.6009   24.2835 H   0  0  0  0  0  0  0  0  0  0  0  0
   12.2337    1.2850   22.6921 H   0  0  0  0  0  0  0  0  0  0  0  0
   10.4887    0.0804   24.8690 H   0  0  0  0  0  0  0  0  0  0  0  0
   10.1137    1.4026   23.7124 H   0  0  0  0  0  0  0  0  0  0  0  0
    7.7758   -1.3549   21.8700 H   0  0  0  0  0  0  0  0  0  0  0  0
    6.1759    1.2299   22.6239 H   0  0  0  0  0  0  0  0  0  0  0  0
    4.4811    1.0390   22.0605 H   0  0  0  0  0  0  0  0  0  0  0  0
    5.4432   -0.4067   22.5197 H   0  0  0  0  0  0  0  0  0  0  0  0
    8.6079   -0.5329   18.7555 H   0  0  0  0  0  0  0  0  0  0  0  0
    5.0889    1.2648   17.4870 H   0  0  0  0  0  0  0  0  0  0  0  0
    4.2269    1.3593   19.7622 H   0  0  0  0  0  0  0  0  0  0  0  0
  1  2  2  0  0  0  0
  2  3  1  0  0  0  0
  2 10  1  0  0  0  0
  3  4  1  0  0  0  0
  3  9  1  0  0  0  0
  3 18  1  0  0  0  0
  4  5  1  0  0  0  0
  4 19  1  0  0  0  0
  4 20  1  0  0  0  0
  5  6  1  0  0  0  0
  5  7  1  0  0  0  0
  5  8  1  0  0  0  0
  6  7  1  0  0  0  0
  6 21  1  0  0  0  0
  6 22  1  0  0  0  0
  7 23  1  0  0  0  0
  7 24  1  0  0  0  0
  8  9  1  0  0  0  0
  8 25  1  0  0  0  0
  8 26  1  0  0  0  0
  9 27  1  0  0  0  0
  9 28  1  0  0  0  0
 10 11  1  0  0  0  0
 10 29  1  0  0  0  0
 11 12  2  0  0  0  0
 11 14  1  0  0  0  0
 12 13  1  0  0  0  0
 12 17  1  0  0  0  0
 13 30  1  0  0  0  0
 13 31  1  0  0  0  0
 13 32  1  0  0  0  0
 14 15  2  0  0  0  0
 14 33  1  0  0  0  0
 15 16  1  0  0  0  0
 16 17  2  0  0  0  0
 16 34  1  0  0  0  0
 17 35  1  0  0  0  0
M  END
> <compound_name>
MAT-POS-590ac91e-21

> <provenance>
{"isomeric_smiles": "Cc1ccncc1NC(=O)[C@@H]2CCC3(C2)CC3", "inchi": "InChI=1S/C14H18N2O/c1-10-3-7-15-9-12(10)16-13(17)11-2-4-14(8-11)5-6-14/h3,7,9,11H,2,4-6,8H2,1H3,(H,16,17)/t11-/m1/s1", "inchi_key": "FNCISWRYQRGLKF-LLVKDONJSA-N", "fixed_inchi": "InChI=1/C14H18N2O/c1-10-3-7-15-9-12(10)16-13(17)11-2-4-14(8-11)5-6-14/h3,7,9,11H,2,4-6,8H2,1H3,(H,16,17)/t11-/m1/s1/f/h16H", "fixed_inchikey": "FNCISWRYQRGLKF-ZKKFCXPBNA-N"}

> <data_format>
sdf

$$$$
