LIG(A-305)
  -OEChem-06042511373D

 45 48  0     1  0  0  0  0  0999 V2000
    6.3952   -2.5703   20.9149 O   0  0  0  0  0  0  0  0  0  0  0  0
    7.2243   -1.8264   21.4148 C   0  0  0  0  0  0  0  0  0  0  0  0
    8.1023   -2.2924   22.5857 C   0  0  2  0  0  0  0  0  0  0  0  0
    8.0725   -1.2544   23.6998 C   0  0  0  0  0  0  0  0  0  0  0  0
    6.8525   -0.7424   24.1258 C   0  0  0  0  0  0  0  0  0  0  0  0
    6.8276    0.2116   25.1218 C   0  0  0  0  0  0  0  0  0  0  0  0
    5.2887    0.8177   25.6579 Cl  0  0  0  0  0  0  0  0  0  0  0  0
    7.9797    0.6766   25.7188 C   0  0  0  0  0  0  0  0  0  0  0  0
    9.2016    0.1735   25.3127 C   0  0  0  0  0  0  0  0  0  0  0  0
    9.2435   -0.7855   24.3137 C   0  0  0  0  0  0  0  0  0  0  0  0
   10.4995   -1.2475   23.9936 O   0  0  0  0  0  0  0  0  0  0  0  0
   10.5374   -2.4705   23.2286 C   0  0  0  0  0  0  0  0  0  0  0  0
    9.5553   -2.4185   22.0777 C   0  0  0  0  0  0  0  0  0  0  0  0
    7.6843   -3.6754   23.1118 C   0  0  0  0  0  0  0  0  0  0  0  0
    6.2543   -3.8333   23.3719 N   0  3  0  0  0  0  0  0  0  0  0  0
    7.4193   -0.5744   20.9678 N   0  0  0  0  0  0  0  0  0  0  0  0
    6.7243    0.0367   19.9059 C   0  0  0  0  0  0  0  0  0  0  0  0
    5.5423    0.7747   20.2069 C   0  0  0  0  0  0  0  0  0  0  0  0
    5.0014    0.9008   21.5120 C   0  0  0  0  0  0  0  0  0  0  0  0
    3.8515    1.6038   21.7290 C   0  0  0  0  0  0  0  0  0  0  0  0
    3.1894    2.2189   20.6781 C   0  0  0  0  0  0  0  0  0  0  0  0
    3.6734    2.1338   19.4041 C   0  0  0  0  0  0  0  0  0  0  0  0
    4.8593    1.4088   19.1330 C   0  0  0  0  0  0  0  0  0  0  0  0
    5.4052    1.2688   17.8339 C   0  0  0  0  0  0  0  0  0  0  0  0
    6.5002    0.5747   17.5549 N   0  0  0  0  0  0  0  0  0  0  0  0
    7.1272   -0.0283   18.5708 C   0  0  0  0  0  0  0  0  0  0  0  0
    5.9315   -1.0886   23.6807 H   0  0  0  0  0  0  0  0  0  0  0  0
    7.9284    1.4256   26.4952 H   0  0  0  0  0  0  0  0  0  0  0  0
   10.1149    0.5248   25.7698 H   0  0  0  0  0  0  0  0  0  0  0  0
   11.5523   -2.6145   22.8297 H   0  0  0  0  0  0  0  0  0  0  0  0
   10.2784   -3.3142   23.8852 H   0  0  0  0  0  0  0  0  0  0  0  0
    9.6489   -3.3402   21.4846 H   0  0  0  0  0  0  0  0  0  0  0  0
    9.7904   -1.5499   21.4449 H   0  0  0  0  0  0  0  0  0  0  0  0
    7.9801   -4.4275   22.3656 H   0  0  0  0  0  0  0  0  0  0  0  0
    8.2241   -3.8598   24.0522 H   0  0  0  0  0  0  0  0  0  0  0  0
    6.0382   -4.8048   23.4703 H   0  0  0  0  0  0  0  0  0  0  0  0
    6.0136   -3.3514   24.2144 H   0  0  0  0  0  0  0  0  0  0  0  0
    5.7327   -3.4516   22.6089 H   0  0  0  0  0  0  0  0  0  0  0  0
    8.1189   -0.0288   21.4293 H   0  0  0  0  0  0  0  0  0  0  0  0
    5.5061    0.4343   22.3451 H   0  0  0  0  0  0  0  0  0  0  0  0
    3.4535    1.6815   22.7301 H   0  0  0  0  0  0  0  0  0  0  0  0
    2.2812    2.7712   20.8689 H   0  0  0  0  0  0  0  0  0  0  0  0
    3.1479    2.6231   18.5973 H   0  0  0  0  0  0  0  0  0  0  0  0
    4.8966    1.7592   17.0172 H   0  0  0  0  0  0  0  0  0  0  0  0
    8.0093   -0.6077   18.3417 H   0  0  0  0  0  0  0  0  0  0  0  0
  1  2  2  0  0  0  0
  2  3  1  0  0  0  0
  2 16  1  0  0  0  0
  3  4  1  0  0  0  0
  3 13  1  0  0  0  0
  3 14  1  0  0  0  0
  4  5  2  0  0  0  0
  4 10  1  0  0  0  0
  5  6  1  0  0  0  0
  5 27  1  0  0  0  0
  6  7  1  0  0  0  0
  6  8  2  0  0  0  0
  8  9  1  0  0  0  0
  8 28  1  0  0  0  0
  9 10  2  0  0  0  0
  9 29  1  0  0  0  0
 10 11  1  0  0  0  0
 11 12  1  0  0  0  0
 12 13  1  0  0  0  0
 12 30  1  0  0  0  0
 12 31  1  0  0  0  0
 13 32  1  0  0  0  0
 13 33  1  0  0  0  0
 14 15  1  0  0  0  0
 14 34  1  0  0  0  0
 14 35  1  0  0  0  0
 15 36  1  0  0  0  0
 15 37  1  0  0  0  0
 15 38  1  0  0  0  0
 16 17  1  0  0  0  0
 16 39  1  0  0  0  0
 17 18  2  0  0  0  0
 17 26  1  0  0  0  0
 18 19  1  0  0  0  0
 18 23  1  0  0  0  0
 19 20  2  0  0  0  0
 19 40  1  0  0  0  0
 20 21  1  0  0  0  0
 20 41  1  0  0  0  0
 21 22  2  0  0  0  0
 21 42  1  0  0  0  0
 22 23  1  0  0  0  0
 22 43  1  0  0  0  0
 23 24  2  0  0  0  0
 24 25  1  0  0  0  0
 24 44  1  0  0  0  0
 25 26  2  0  0  0  0
 26 45  1  0  0  0  0
M  CHG  1  15   1
M  END
> <compound_name>
MAT-POS-2bb0cf2b-1

> <provenance>
{"isomeric_smiles": "c1ccc2c(c1)cncc2NC(=O)[C@]3(CCOc4c3cc(cc4)Cl)C[NH3+]", "inchi": "InChI=1S/C20H18ClN3O2/c21-14-5-6-18-16(9-14)20(12-22,7-8-26-18)19(25)24-17-11-23-10-13-3-1-2-4-15(13)17/h1-6,9-11H,7-8,12,22H2,(H,24,25)/p+1/t20-/m1/s1", "inchi_key": "ILSGMAUMNXSNQB-HXUWFJFHSA-O", "fixed_inchi": "InChI=1/C20H18ClN3O2/c21-14-5-6-18-16(9-14)20(12-22,7-8-26-18)19(25)24-17-11-23-10-13-3-1-2-4-15(13)17/h1-6,9-11H,7-8,12,22H2,(H,24,25)/p+1/t20-/m1/s1/fC20H19ClN3O2/h22,24H/q+1", "fixed_inchikey": "ILSGMAUMNXSNQB-MWWNKAMSNA-O"}

> <data_format>
sdf

$$$$
