LIG(A-305)
  -OEChem-06042511363D

 47 49  0     1  0  0  0  0  0999 V2000
   13.4979    0.6363   23.7081 Cl  0  0  0  0  0  0  0  0  0  0  0  0
   11.8359    0.1805   23.9293 C   0  0  0  0  0  0  0  0  0  0  0  0
   11.1876   -0.4874   22.9124 C   0  0  0  0  0  0  0  0  0  0  0  0
   11.2161    0.4596   25.1324 C   0  0  0  0  0  0  0  0  0  0  0  0
    9.9061    0.0317   25.3256 C   0  0  0  0  0  0  0  0  0  0  0  0
    9.2693    0.3028   26.5347 N   0  0  0  0  0  0  0  0  0  0  0  0
    7.9103   -0.0770   26.8989 C   0  0  2  0  0  0  0  0  0  0  0  0
    6.8664    0.9871   26.5081 C   0  0  1  0  0  0  0  0  0  0  0  0
    6.5181    0.9221   25.1242 O   0  0  0  0  0  0  0  0  0  0  0  0
    5.6765    0.6282   27.3853 C   0  0  0  0  0  0  0  0  0  0  0  0
    6.2746    0.1542   28.7042 C   0  0  0  0  0  0  0  0  0  0  0  0
    7.7295   -0.2220   28.4170 C   0  0  0  0  0  0  0  0  0  0  0  0
    9.2468   -0.6522   24.3077 C   0  0  0  0  0  0  0  0  0  0  0  0
    9.8756   -0.9023   23.0936 C   0  0  0  0  0  0  0  0  0  0  0  0
    9.1214   -1.5532   21.9618 C   0  0  0  0  0  0  0  0  0  0  0  0
    8.4684   -0.4991   21.0919 C   0  0  0  0  0  0  0  0  0  0  0  0
    9.0075    0.5828   20.8608 O   0  0  0  0  0  0  0  0  0  0  0  0
    7.2682   -0.8560   20.5930 N   0  0  0  0  0  0  0  0  0  0  0  0
    6.5962   -0.1149   19.6001 C   0  0  0  0  0  0  0  0  0  0  0  0
    5.5043    0.6933   19.9533 C   0  0  0  0  0  0  0  0  0  0  0  0
    5.0446    0.8323   21.3814 C   0  0  0  0  0  0  0  0  0  0  0  0
    7.0130   -0.1329   18.2691 C   0  0  0  0  0  0  0  0  0  0  0  0
    6.4239    0.5752   17.3032 N   0  0  0  0  0  0  0  0  0  0  0  0
    5.3691    1.3253   17.6503 C   0  0  0  0  0  0  0  0  0  0  0  0
    4.8853    1.4113   18.9384 C   0  0  0  0  0  0  0  0  0  0  0  0
   11.6972   -0.6865   21.9813 H   0  0  0  0  0  0  0  0  0  0  0  0
   11.7386    0.9996   25.9083 H   0  0  0  0  0  0  0  0  0  0  0  0
    9.8662    0.5665   27.2924 H   0  0  0  0  0  0  0  0  0  0  0  0
    7.6445   -1.0290   26.4161 H   0  0  0  0  0  0  0  0  0  0  0  0
    7.2403    1.9859   26.7772 H   0  0  0  0  0  0  0  0  0  0  0  0
    6.8837    1.6720   24.6697 H   0  0  0  0  0  0  0  0  0  0  0  0
    5.0379    1.5092   27.5469 H   0  0  0  0  0  0  0  0  0  0  0  0
    5.0840   -0.1739   26.9210 H   0  0  0  0  0  0  0  0  0  0  0  0
    6.2319    0.9604   29.4514 H   0  0  0  0  0  0  0  0  0  0  0  0
    5.7233   -0.7214   29.0776 H   0  0  0  0  0  0  0  0  0  0  0  0
    8.4123    0.4559   28.9501 H   0  0  0  0  0  0  0  0  0  0  0  0
    7.9252   -1.2587   28.7282 H   0  0  0  0  0  0  0  0  0  0  0  0
    8.2338   -0.9928   24.4635 H   0  0  0  0  0  0  0  0  0  0  0  0
    9.8205   -2.1447   21.3524 H   0  0  0  0  0  0  0  0  0  0  0  0
    8.3456   -2.2143   22.3753 H   0  0  0  0  0  0  0  0  0  0  0  0
    6.8341   -1.6857   20.9439 H   0  0  0  0  0  0  0  0  0  0  0  0
    5.8621    1.2433   21.9919 H   0  0  0  0  0  0  0  0  0  0  0  0
    4.1792    1.5101   21.4235 H   0  0  0  0  0  0  0  0  0  0  0  0
    4.7563   -0.1550   21.7714 H   0  0  0  0  0  0  0  0  0  0  0  0
    7.8573   -0.7529   18.0062 H   0  0  0  0  0  0  0  0  0  0  0  0
    4.8707    1.8934   16.8788 H   0  0  0  0  0  0  0  0  0  0  0  0
    4.0300    2.0334   19.1569 H   0  0  0  0  0  0  0  0  0  0  0  0
  1  2  1  0  0  0  0
  2  3  2  0  0  0  0
  2  4  1  0  0  0  0
  3 14  1  0  0  0  0
  3 26  1  0  0  0  0
  4  5  2  0  0  0  0
  4 27  1  0  0  0  0
  5  6  1  0  0  0  0
  5 13  1  0  0  0  0
  6  7  1  0  0  0  0
  6 28  1  0  0  0  0
  7  8  1  0  0  0  0
  7 12  1  0  0  0  0
  7 29  1  0  0  0  0
  8  9  1  0  0  0  0
  8 10  1  0  0  0  0
  8 30  1  0  0  0  0
  9 31  1  0  0  0  0
 10 11  1  0  0  0  0
 10 32  1  0  0  0  0
 10 33  1  0  0  0  0
 11 12  1  0  0  0  0
 11 34  1  0  0  0  0
 11 35  1  0  0  0  0
 12 36  1  0  0  0  0
 12 37  1  0  0  0  0
 13 14  2  0  0  0  0
 13 38  1  0  0  0  0
 14 15  1  0  0  0  0
 15 16  1  0  0  0  0
 15 39  1  0  0  0  0
 15 40  1  0  0  0  0
 16 17  2  0  0  0  0
 16 18  1  0  0  0  0
 18 19  1  0  0  0  0
 18 41  1  0  0  0  0
 19 20  2  0  0  0  0
 19 22  1  0  0  0  0
 20 21  1  0  0  0  0
 20 25  1  0  0  0  0
 21 42  1  0  0  0  0
 21 43  1  0  0  0  0
 21 44  1  0  0  0  0
 22 23  2  0  0  0  0
 22 45  1  0  0  0  0
 23 24  1  0  0  0  0
 24 25  2  0  0  0  0
 24 46  1  0  0  0  0
 25 47  1  0  0  0  0
M  END
> <compound_name>
MAT-POS-044491d2-1

> <provenance>
{"isomeric_smiles": "Cc1ccncc1NC(=O)Cc2cc(cc(c2)Cl)N[C@H]3CCC[C@@H]3O", "inchi": "InChI=1S/C19H22ClN3O2/c1-12-5-6-21-11-17(12)23-19(25)9-13-7-14(20)10-15(8-13)22-16-3-2-4-18(16)24/h5-8,10-11,16,18,22,24H,2-4,9H2,1H3,(H,23,25)/t16-,18-/m0/s1", "inchi_key": "SXRYZSBUMPNSOT-WMZOPIPTSA-N", "fixed_inchi": "InChI=1/C19H22ClN3O2/c1-12-5-6-21-11-17(12)23-19(25)9-13-7-14(20)10-15(8-13)22-16-3-2-4-18(16)24/h5-8,10-11,16,18,22,24H,2-4,9H2,1H3,(H,23,25)/t16-,18-/m0/s1/f/h23H", "fixed_inchikey": "SXRYZSBUMPNSOT-DTMYXBECNA-N"}

> <data_format>
sdf

$$$$
