LIG(A-305)
  -OEChem-06042511343D

 36 38  0     1  0  0  0  0  0999 V2000
   13.8647    6.9375   22.5492 O   0  0  0  0  0  0  0  0  0  0  0  0
   13.6037    5.7585   22.7642 C   0  0  0  0  0  0  0  0  0  0  0  0
   14.1556    4.6735   23.6742 C   0  0  0  0  0  0  0  0  0  0  0  0
   12.7356    4.9105   22.1832 N   0  0  0  0  0  0  0  0  0  0  0  0
   13.4146    3.7065   22.7382 C   0  0  2  0  0  0  0  0  0  0  0  0
   12.4956    2.9095   23.5301 O   0  0  0  0  0  0  0  0  0  0  0  0
   12.3496    1.6255   23.0531 C   0  0  0  0  0  0  0  0  0  0  0  0
   13.3955    0.7305   23.1981 C   0  0  0  0  0  0  0  0  0  0  0  0
   13.2365   -0.5735   22.7570 C   0  0  0  0  0  0  0  0  0  0  0  0
   12.0445   -0.9825   22.1800 C   0  0  0  0  0  0  0  0  0  0  0  0
   11.1576    1.2405   22.4561 C   0  0  0  0  0  0  0  0  0  0  0  0
   11.0075   -0.0714   22.0120 C   0  0  0  0  0  0  0  0  0  0  0  0
    9.8205   -0.5424   21.4050 N   0  0  0  0  0  0  0  0  0  0  0  0
    8.7026    0.1486   21.0940 C   0  0  0  0  0  0  0  0  0  0  0  0
    8.6556    1.3716   21.0000 O   0  0  0  0  0  0  0  0  0  0  0  0
    7.4826   -0.7173   20.8570 C   0  0  0  0  0  0  0  0  0  0  0  0
    6.5706   -0.1763   19.7810 C   0  0  0  0  0  0  0  0  0  0  0  0
    6.9726   -0.1403   18.4560 C   0  0  0  0  0  0  0  0  0  0  0  0
    6.3806    0.6138   17.5240 N   0  0  0  0  0  0  0  0  0  0  0  0
    5.3576    1.3548   17.9500 C   0  0  0  0  0  0  0  0  0  0  0  0
    4.8846    1.4277   19.1960 N   0  0  0  0  0  0  0  0  0  0  0  0
    5.5106    0.6577   20.0930 C   0  0  0  0  0  0  0  0  0  0  0  0
   15.2513    4.5762   23.6770 H   0  0  0  0  0  0  0  0  0  0  0  0
   13.7871    4.6980   24.7103 H   0  0  0  0  0  0  0  0  0  0  0  0
   11.9351    5.0399   21.5982 H   0  0  0  0  0  0  0  0  0  0  0  0
   14.0595    3.1569   22.0367 H   0  0  0  0  0  0  0  0  0  0  0  0
   14.3248    1.0449   23.6497 H   0  0  0  0  0  0  0  0  0  0  0  0
   14.0486   -1.2774   22.8638 H   0  0  0  0  0  0  0  0  0  0  0  0
   11.9213   -2.0071   21.8614 H   0  0  0  0  0  0  0  0  0  0  0  0
   10.3534    1.9516   22.3367 H   0  0  0  0  0  0  0  0  0  0  0  0
    9.8070   -1.5157   21.1757 H   0  0  0  0  0  0  0  0  0  0  0  0
    7.8187   -1.7212   20.5584 H   0  0  0  0  0  0  0  0  0  0  0  0
    6.9138   -0.7853   21.7960 H   0  0  0  0  0  0  0  0  0  0  0  0
    7.8098   -0.7548   18.1596 H   0  0  0  0  0  0  0  0  0  0  0  0
    4.8586    1.9604   17.2081 H   0  0  0  0  0  0  0  0  0  0  0  0
    5.1702    0.6884   21.1175 H   0  0  0  0  0  0  0  0  0  0  0  0
  1  2  2  0  0  0  0
  2  3  1  0  0  0  0
  2  4  1  0  0  0  0
  3  5  1  0  0  0  0
  3 23  1  0  0  0  0
  3 24  1  0  0  0  0
  4  5  1  0  0  0  0
  4 25  1  0  0  0  0
  5  6  1  0  0  0  0
  5 26  1  0  0  0  0
  6  7  1  0  0  0  0
  7  8  2  0  0  0  0
  7 11  1  0  0  0  0
  8  9  1  0  0  0  0
  8 27  1  0  0  0  0
  9 10  2  0  0  0  0
  9 28  1  0  0  0  0
 10 12  1  0  0  0  0
 10 29  1  0  0  0  0
 11 12  2  0  0  0  0
 11 30  1  0  0  0  0
 12 13  1  0  0  0  0
 13 14  1  0  0  0  0
 13 31  1  0  0  0  0
 14 15  2  0  0  0  0
 14 16  1  0  0  0  0
 16 17  1  0  0  0  0
 16 32  1  0  0  0  0
 16 33  1  0  0  0  0
 17 18  2  0  0  0  0
 17 22  1  0  0  0  0
 18 19  1  0  0  0  0
 18 34  1  0  0  0  0
 19 20  2  0  0  0  0
 20 21  1  0  0  0  0
 20 35  1  0  0  0  0
 21 22  2  0  0  0  0
 22 36  1  0  0  0  0
M  END
> <compound_name>
BAR-COM-4e090d3a-39

> <provenance>
{"isomeric_smiles": "c1cc(cc(c1)O[C@@H]2CC(=O)N2)NC(=O)Cc3cncnc3", "inchi": "InChI=1S/C15H14N4O3/c20-13(4-10-7-16-9-17-8-10)18-11-2-1-3-12(5-11)22-15-6-14(21)19-15/h1-3,5,7-9,15H,4,6H2,(H,18,20)(H,19,21)/t15-/m1/s1", "inchi_key": "SGVQMOZIVBYLOT-OAHLLOKOSA-N", "fixed_inchi": "InChI=1/C15H14N4O3/c20-13(4-10-7-16-9-17-8-10)18-11-2-1-3-12(5-11)22-15-6-14(21)19-15/h1-3,5,7-9,15H,4,6H2,(H,18,20)(H,19,21)/t15-/m1/s1/f/h18-19H", "fixed_inchikey": "SGVQMOZIVBYLOT-ZGRTYWQWNA-N"}

> <data_format>
sdf

$$$$
