LIG(A-306)
  -OEChem-06042511393D

 53 56  0     0  0  0  0  0  0999 V2000
    8.9598    1.4781   20.8353 O   0  0  0  0  0  0  0  0  0  0  0  0
    8.5665    0.5251   21.4932 C   0  0  0  0  0  0  0  0  0  0  0  0
    7.5570   -0.4509   20.9138 C   0  0  0  0  0  0  0  0  0  0  0  0
    6.7389    0.1321   19.7796 C   0  0  0  0  0  0  0  0  0  0  0  0
    5.6601    1.0264   20.0371 C   0  0  0  0  0  0  0  0  0  0  0  0
    5.2603    1.4126   21.3459 C   0  0  0  0  0  0  0  0  0  0  0  0
    4.2344    2.2938   21.5364 C   0  0  0  0  0  0  0  0  0  0  0  0
    3.5503    2.8320   20.4511 C   0  0  0  0  0  0  0  0  0  0  0  0
    3.8892    2.4839   19.1754 C   0  0  0  0  0  0  0  0  0  0  0  0
    4.9530    1.5775   18.9339 C   0  0  0  0  0  0  0  0  0  0  0  0
    5.3748    1.1964   17.6381 C   0  0  0  0  0  0  0  0  0  0  0  0
    6.3757    0.3581   17.3996 N   0  0  0  0  0  0  0  0  0  0  0  0
    7.0217   -0.1541   18.4558 C   0  0  0  0  0  0  0  0  0  0  0  0
    9.0007    0.3093   22.7692 N   0  0  0  0  0  0  0  0  0  0  0  0
   10.0562    1.1663   23.3138 C   0  0  0  0  0  0  0  0  0  0  0  0
   11.3515    0.4338   23.5548 C   0  0  0  0  0  0  0  0  0  0  0  0
   12.0445   -0.1379   22.4940 C   0  0  0  0  0  0  0  0  0  0  0  0
   13.2108   -0.8354   22.7371 C   0  0  0  0  0  0  0  0  0  0  0  0
   14.0716   -1.5296   21.3935 Cl  0  0  0  0  0  0  0  0  0  0  0  0
   13.7120   -0.9923   24.0119 C   0  0  0  0  0  0  0  0  0  0  0  0
   13.0220   -0.4225   25.0706 C   0  0  0  0  0  0  0  0  0  0  0  0
   11.8527    0.2860   24.8405 C   0  0  0  0  0  0  0  0  0  0  0  0
    8.4226   -0.6533   23.6483 C   0  0  0  0  0  0  0  0  0  0  0  0
    7.4255   -0.2649   24.5336 C   0  0  0  0  0  0  0  0  0  0  0  0
    6.7132   -1.2228   25.2239 C   0  0  0  0  0  0  0  0  0  0  0  0
    8.6786   -2.0116   23.4834 C   0  0  0  0  0  0  0  0  0  0  0  0
    7.9983   -2.9575   24.1466 N   0  0  0  0  0  0  0  0  0  0  0  0
    7.0331   -2.5672   25.0008 C   0  0  0  0  0  0  0  0  0  0  0  0
    6.3618   -3.6061   25.6612 N   0  0  0  0  0  0  0  0  0  0  0  0
    5.3386   -3.5167   26.5540 C   0  0  0  0  0  0  0  0  0  0  0  0
    4.6166   -2.5216   26.6561 O   0  0  0  0  0  0  0  0  0  0  0  0
    5.1516   -4.7243   27.4232 C   0  0  0  0  0  0  0  0  0  0  0  0
    8.0994   -1.3304   20.5364 H   0  0  0  0  0  0  0  0  0  0  0  0
    6.8706   -0.7599   21.7160 H   0  0  0  0  0  0  0  0  0  0  0  0
    5.7755    1.0030   22.2021 H   0  0  0  0  0  0  0  0  0  0  0  0
    3.9513    2.5758   22.5398 H   0  0  0  0  0  0  0  0  0  0  0  0
    2.7444    3.5310   20.6193 H   0  0  0  0  0  0  0  0  0  0  0  0
    3.3425    2.9021   18.3431 H   0  0  0  0  0  0  0  0  0  0  0  0
    4.8501    1.6134   16.7912 H   0  0  0  0  0  0  0  0  0  0  0  0
    7.8275   -0.8454   18.2581 H   0  0  0  0  0  0  0  0  0  0  0  0
   10.2442    1.9840   22.6024 H   0  0  0  0  0  0  0  0  0  0  0  0
    9.7082    1.5846   24.2697 H   0  0  0  0  0  0  0  0  0  0  0  0
   11.6726   -0.0369   21.4851 H   0  0  0  0  0  0  0  0  0  0  0  0
   14.6228   -1.5471   24.1820 H   0  0  0  0  0  0  0  0  0  0  0  0
   13.3963   -0.5309   26.0778 H   0  0  0  0  0  0  0  0  0  0  0  0
   11.3252    0.7285   25.6725 H   0  0  0  0  0  0  0  0  0  0  0  0
    7.2088    0.7828   24.6808 H   0  0  0  0  0  0  0  0  0  0  0  0
    5.9321   -0.9442   25.9158 H   0  0  0  0  0  0  0  0  0  0  0  0
    9.4541   -2.3146   22.7955 H   0  0  0  0  0  0  0  0  0  0  0  0
    6.6752   -4.5316   25.4489 H   0  0  0  0  0  0  0  0  0  0  0  0
    4.3103   -4.5546   28.1113 H   0  0  0  0  0  0  0  0  0  0  0  0
    4.9385   -5.6002   26.7928 H   0  0  0  0  0  0  0  0  0  0  0  0
    6.0688   -4.9042   28.0031 H   0  0  0  0  0  0  0  0  0  0  0  0
  1  2  2  0  0  0  0
  2  3  1  0  0  0  0
  2 14  1  0  0  0  0
  3  4  1  0  0  0  0
  3 33  1  0  0  0  0
  3 34  1  0  0  0  0
  4  5  2  0  0  0  0
  4 13  1  0  0  0  0
  5  6  1  0  0  0  0
  5 10  1  0  0  0  0
  6  7  2  0  0  0  0
  6 35  1  0  0  0  0
  7  8  1  0  0  0  0
  7 36  1  0  0  0  0
  8  9  2  0  0  0  0
  8 37  1  0  0  0  0
  9 10  1  0  0  0  0
  9 38  1  0  0  0  0
 10 11  2  0  0  0  0
 11 12  1  0  0  0  0
 11 39  1  0  0  0  0
 12 13  2  0  0  0  0
 13 40  1  0  0  0  0
 14 15  1  0  0  0  0
 14 23  1  0  0  0  0
 15 16  1  0  0  0  0
 15 41  1  0  0  0  0
 15 42  1  0  0  0  0
 16 17  2  0  0  0  0
 16 22  1  0  0  0  0
 17 18  1  0  0  0  0
 17 43  1  0  0  0  0
 18 19  1  0  0  0  0
 18 20  2  0  0  0  0
 20 21  1  0  0  0  0
 20 44  1  0  0  0  0
 21 22  2  0  0  0  0
 21 45  1  0  0  0  0
 22 46  1  0  0  0  0
 23 24  2  0  0  0  0
 23 26  1  0  0  0  0
 24 25  1  0  0  0  0
 24 47  1  0  0  0  0
 25 28  2  0  0  0  0
 25 48  1  0  0  0  0
 26 27  2  0  0  0  0
 26 49  1  0  0  0  0
 27 28  1  0  0  0  0
 28 29  1  0  0  0  0
 29 30  1  0  0  0  0
 29 50  1  0  0  0  0
 30 31  2  0  0  0  0
 30 32  1  0  0  0  0
 32 51  1  0  0  0  0
 32 52  1  0  0  0  0
 32 53  1  0  0  0  0
M  END
> <compound_name>
ALP-POS-c3a96089-4

> <provenance>
{"isomeric_smiles": "CC(=O)Nc1ccc(cn1)N(Cc2cccc(c2)Cl)C(=O)Cc3cncc4c3cccc4", "inchi": "InChI=1S/C25H21ClN4O2/c1-17(31)29-24-10-9-22(15-28-24)30(16-18-5-4-7-21(26)11-18)25(32)12-20-14-27-13-19-6-2-3-8-23(19)20/h2-11,13-15H,12,16H2,1H3,(H,28,29,31)", "inchi_key": "LTNIKFLJOUNFAI-UHFFFAOYSA-N", "fixed_inchi": "InChI=1/C25H21ClN4O2/c1-17(31)29-24-10-9-22(15-28-24)30(16-18-5-4-7-21(26)11-18)25(32)12-20-14-27-13-19-6-2-3-8-23(19)20/h2-11,13-15H,12,16H2,1H3,(H,28,29,31)/f/h29H", "fixed_inchikey": "LTNIKFLJOUNFAI-PKRZOPRNNA-N"}

> <data_format>
sdf

$$$$
