LIG(A-306)
  -OEChem-06042511403D

 40 44  0     1  0  0  0  0  0999 V2000
    9.2297    1.4205   21.1761 O   0  0  0  0  0  0  0  0  0  0  0  0
    8.7657    0.4045   21.6601 C   0  0  0  0  0  0  0  0  0  0  0  0
    9.3006   -0.3305   22.8901 C   0  0  1  0  0  0  0  0  0  0  0  0
   10.8006   -0.3647   22.9410 C   0  0  0  0  0  0  0  0  0  0  0  0
   11.7215   -1.0768   22.1810 C   0  0  0  0  0  0  0  0  0  0  0  0
   13.0606   -0.7589   22.3080 C   0  0  0  0  0  0  0  0  0  0  0  0
   14.2234   -1.5800   21.2969 Cl  0  0  0  0  0  0  0  0  0  0  0  0
   13.5017    0.2161   23.1909 C   0  0  0  0  0  0  0  0  0  0  0  0
   12.5808    0.8962   23.9730 C   0  0  0  0  0  0  0  0  0  0  0  0
   11.2358    0.5943   23.8400 C   0  0  0  0  0  0  0  0  0  0  0  0
   10.2108    1.1424   24.5841 O   0  0  0  0  0  0  0  0  0  0  0  0
    8.9878    0.4535   24.1861 C   0  0  0  0  0  0  0  0  0  0  0  0
    8.6935   -1.7425   22.7302 C   0  0  0  0  0  0  0  0  0  0  0  0
    7.4185   -1.5233   21.9242 C   0  0  0  0  0  0  0  0  0  0  0  0
    7.6796   -0.2754   21.1912 N   0  0  0  0  0  0  0  0  0  0  0  0
    6.8596    0.1357   20.0912 C   0  0  0  0  0  0  0  0  0  0  0  0
    7.1965   -0.1604   18.7742 C   0  0  0  0  0  0  0  0  0  0  0  0
    6.5355    0.2787   17.6942 N   0  0  0  0  0  0  0  0  0  0  0  0
    5.4706    1.0408   17.8982 C   0  0  0  0  0  0  0  0  0  0  0  0
    5.7167    0.9578   20.3152 C   0  0  0  0  0  0  0  0  0  0  0  0
    5.2908    1.3699   21.6022 C   0  0  0  0  0  0  0  0  0  0  0  0
    4.2168    2.1920   21.7053 C   0  0  0  0  0  0  0  0  0  0  0  0
    3.8589    2.6260   22.9393 F   0  0  0  0  0  0  0  0  0  0  0  0
    4.9997    1.4219   19.1783 C   0  0  0  0  0  0  0  0  0  0  0  0
    3.8788    2.2650   19.3713 C   0  0  0  0  0  0  0  0  0  0  0  0
    3.4958    2.6420   20.6233 C   0  0  0  0  0  0  0  0  0  0  0  0
   11.3989   -1.8581   21.5088 H   0  0  0  0  0  0  0  0  0  0  0  0
   14.5546    0.4436   23.2685 H   0  0  0  0  0  0  0  0  0  0  0  0
   12.9072    1.6495   24.6747 H   0  0  0  0  0  0  0  0  0  0  0  0
    8.6721   -0.2407   24.9788 H   0  0  0  0  0  0  0  0  0  0  0  0
    8.1877    1.1850   23.9993 H   0  0  0  0  0  0  0  0  0  0  0  0
    9.3861   -2.4040   22.1891 H   0  0  0  0  0  0  0  0  0  0  0  0
    8.4616   -2.1791   23.7128 H   0  0  0  0  0  0  0  0  0  0  0  0
    7.2457   -2.3579   21.2288 H   0  0  0  0  0  0  0  0  0  0  0  0
    6.5486   -1.4134   22.5884 H   0  0  0  0  0  0  0  0  0  0  0  0
    8.0566   -0.7924   18.6096 H   0  0  0  0  0  0  0  0  0  0  0  0
    4.9277    1.3934   17.0338 H   0  0  0  0  0  0  0  0  0  0  0  0
    5.8126    1.0349   22.4865 H   0  0  0  0  0  0  0  0  0  0  0  0
    3.3202    2.6136   18.5152 H   0  0  0  0  0  0  0  0  0  0  0  0
    2.6393    3.2845   20.7643 H   0  0  0  0  0  0  0  0  0  0  0  0
  1  2  2  0  0  0  0
  2  3  1  0  0  0  0
  2 15  1  0  0  0  0
  3  4  1  0  0  0  0
  3 12  1  0  0  0  0
  3 13  1  0  0  0  0
  4  5  2  0  0  0  0
  4 10  1  0  0  0  0
  5  6  1  0  0  0  0
  5 27  1  0  0  0  0
  6  7  1  0  0  0  0
  6  8  2  0  0  0  0
  8  9  1  0  0  0  0
  8 28  1  0  0  0  0
  9 10  2  0  0  0  0
  9 29  1  0  0  0  0
 10 11  1  0  0  0  0
 11 12  1  0  0  0  0
 12 30  1  0  0  0  0
 12 31  1  0  0  0  0
 13 14  1  0  0  0  0
 13 32  1  0  0  0  0
 13 33  1  0  0  0  0
 14 15  1  0  0  0  0
 14 34  1  0  0  0  0
 14 35  1  0  0  0  0
 15 16  1  0  0  0  0
 16 17  2  0  0  0  0
 16 20  1  0  0  0  0
 17 18  1  0  0  0  0
 17 36  1  0  0  0  0
 18 19  2  0  0  0  0
 19 24  1  0  0  0  0
 19 37  1  0  0  0  0
 20 21  2  0  0  0  0
 20 24  1  0  0  0  0
 21 22  1  0  0  0  0
 21 38  1  0  0  0  0
 22 23  1  0  0  0  0
 22 26  2  0  0  0  0
 24 25  2  0  0  0  0
 25 26  1  0  0  0  0
 25 39  1  0  0  0  0
 26 40  1  0  0  0  0
M  END
> <compound_name>
MAT-POS-8293a91a-8

> <provenance>
{"isomeric_smiles": "c1cc2cncc(c2cc1F)N3CC[C@@]4(C3=O)COc5c4cc(cc5)Cl", "inchi": "InChI=1S/C20H14ClFN2O2/c21-13-2-4-18-16(7-13)20(11-26-18)5-6-24(19(20)25)17-10-23-9-12-1-3-14(22)8-15(12)17/h1-4,7-10H,5-6,11H2/t20-/m1/s1", "inchi_key": "XTXMEPGJZZXFBA-HXUWFJFHSA-N", "fixed_inchi": "InChI=1/C20H14ClFN2O2/c21-13-2-4-18-16(7-13)20(11-26-18)5-6-24(19(20)25)17-10-23-9-12-1-3-14(22)8-15(12)17/h1-4,7-10H,5-6,11H2/t20-/m1/s1", "fixed_inchikey": "XTXMEPGJZZXFBA-HXUWFJFHNA-N"}

> <data_format>
sdf

$$$$
