LIG(A-305)
  -OEChem-06042511333D

 12 12  0     0  0  0  0  0  0999 V2000
    3.8634    2.0705   19.5902 N   0  0  0  0  0  0  0  0  0  0  0  0
    4.8274    1.2315   19.1802 C   0  0  0  0  0  0  0  0  0  0  0  0
    5.2664    0.1475   19.9812 C   0  0  0  0  0  0  0  0  0  0  0  0
    6.7044   -0.5045   18.3032 C   0  0  0  0  0  0  0  0  0  0  0  0
    5.4384    1.3575   17.9032 C   0  0  0  0  0  0  0  0  0  0  0  0
    6.1894   -0.7295   19.5582 N   0  0  0  0  0  0  0  0  0  0  0  0
    6.3734    0.5005   17.4702 N   0  0  0  0  0  0  0  0  0  0  0  0
    4.2262    3.0015   19.6310 H   0  0  0  0  0  0  0  0  0  0  0  0
    3.5465    1.7968   20.4983 H   0  0  0  0  0  0  0  0  0  0  0  0
    4.8429    0.0233   20.9669 H   0  0  0  0  0  0  0  0  0  0  0  0
    7.4483   -1.2034   17.9505 H   0  0  0  0  0  0  0  0  0  0  0  0
    5.1390    2.1716   17.2598 H   0  0  0  0  0  0  0  0  0  0  0  0
  1  2  1  0  0  0  0
  1  8  1  0  0  0  0
  1  9  1  0  0  0  0
  2  3  2  0  0  0  0
  2  5  1  0  0  0  0
  3  6  1  0  0  0  0
  3 10  1  0  0  0  0
  4  6  2  0  0  0  0
  4  7  1  0  0  0  0
  4 11  1  0  0  0  0
  5  7  2  0  0  0  0
  5 12  1  0  0  0  0
M  END
> <compound_name>
AAR-POS-d2a4d1df-18

> <provenance>
{"isomeric_smiles": "c1c(cncn1)N", "inchi": "InChI=1S/C4H5N3/c5-4-1-6-3-7-2-4/h1-3H,5H2", "inchi_key": "FVLAYJRLBLHIPV-UHFFFAOYSA-N", "fixed_inchi": "InChI=1/C4H5N3/c5-4-1-6-3-7-2-4/h1-3H,5H2", "fixed_inchikey": "FVLAYJRLBLHIPV-UHFFFAOYNA-N"}

> <data_format>
sdf

$$$$
