LIG(A-307)
  -OEChem-06042511433D

 61 66  0     1  0  0  0  0  0999 V2000
    9.1489    7.2054   22.5007 N   0  0  0  0  0  0  0  0  0  0  0  0
    8.4200    6.3320   22.5026 C   0  0  0  0  0  0  0  0  0  0  0  0
    7.5255    5.1681   22.4661 C   0  0  0  0  0  0  0  0  0  0  0  0
    6.2445    5.2988   21.6731 C   0  0  0  0  0  0  0  0  0  0  0  0
    6.1809    5.2676   23.1520 C   0  0  0  0  0  0  0  0  0  0  0  0
    8.2597    3.8390   22.5703 C   0  0  0  0  0  0  0  0  0  0  0  0
    8.7260    3.2829   24.1974 S   0  0  0  0  0  0  0  0  0  0  0  0
    9.4614    4.3261   24.8374 O   0  0  0  0  0  0  0  0  0  0  0  0
    7.5630    2.7562   24.8381 O   0  0  0  0  0  0  0  0  0  0  0  0
    9.7522    2.0408   23.9589 N   0  0  1  0  0  0  0  0  0  0  0  0
   11.1976    2.2097   24.1584 C   0  0  0  0  0  0  0  0  0  0  0  0
    9.3162    0.6421   24.0981 C   0  0  0  0  0  0  0  0  0  0  0  0
    9.8941   -0.1723   22.9109 C   0  0  2  0  0  0  0  0  0  0  0  0
   11.3967    0.0974   22.7248 C   0  0  0  0  0  0  0  0  0  0  0  0
   11.9873    1.2272   23.3182 C   0  0  0  0  0  0  0  0  0  0  0  0
   13.3457    1.4632   23.1190 C   0  0  0  0  0  0  0  0  0  0  0  0
   14.1097    0.6275   22.3266 C   0  0  0  0  0  0  0  0  0  0  0  0
   12.1786   -0.7614   21.9453 C   0  0  0  0  0  0  0  0  0  0  0  0
   13.5152   -0.4673   21.7434 C   0  0  0  0  0  0  0  0  0  0  0  0
   14.4666   -1.5012   20.7040 Cl  0  0  0  0  0  0  0  0  0  0  0  0
    9.1268    0.3085   21.6825 C   0  0  0  0  0  0  0  0  0  0  0  0
    9.5406    1.2527   21.0430 O   0  0  0  0  0  0  0  0  0  0  0  0
    7.9414   -0.3085   21.3708 N   0  0  0  0  0  0  0  0  0  0  0  0
    7.6045   -1.6917   21.7580 C   0  0  0  0  0  0  0  0  0  0  0  0
    8.1831   -2.0487   23.1161 C   0  0  0  0  0  0  0  0  0  0  0  0
    9.6590   -1.6771   23.1755 C   0  0  0  0  0  0  0  0  0  0  0  0
    7.1460    0.1498   20.2633 C   0  0  0  0  0  0  0  0  0  0  0  0
    5.9647    0.9161   20.5014 C   0  0  0  0  0  0  0  0  0  0  0  0
    5.4849    1.2568   21.7942 C   0  0  0  0  0  0  0  0  0  0  0  0
    4.3605    2.0154   21.9513 C   0  0  0  0  0  0  0  0  0  0  0  0
    3.6642    2.4844   20.8478 C   0  0  0  0  0  0  0  0  0  0  0  0
    4.0802    2.1818   19.5812 C   0  0  0  0  0  0  0  0  0  0  0  0
    5.2324    1.3853   19.3709 C   0  0  0  0  0  0  0  0  0  0  0  0
    5.7073    1.0337   18.0810 C   0  0  0  0  0  0  0  0  0  0  0  0
    6.7936    0.3054   17.8631 N   0  0  0  0  0  0  0  0  0  0  0  0
    7.4831   -0.1114   18.9368 C   0  0  0  0  0  0  0  0  0  0  0  0
    6.0262    6.2328   21.1348 H   0  0  0  0  0  0  0  0  0  0  0  0
    5.8711    4.4439   21.0903 H   0  0  0  0  0  0  0  0  0  0  0  0
    5.9155    6.1785   23.7085 H   0  0  0  0  0  0  0  0  0  0  0  0
    5.7606    4.3895   23.6641 H   0  0  0  0  0  0  0  0  0  0  0  0
    7.6090    3.0677   22.1323 H   0  0  0  0  0  0  0  0  0  0  0  0
    9.1805    3.9234   21.9744 H   0  0  0  0  0  0  0  0  0  0  0  0
   11.4815    3.2336   23.8737 H   0  0  0  0  0  0  0  0  0  0  0  0
   11.4346    2.0452   25.2199 H   0  0  0  0  0  0  0  0  0  0  0  0
    9.6886    0.2297   25.0475 H   0  0  0  0  0  0  0  0  0  0  0  0
    8.2175    0.5923   24.0827 H   0  0  0  0  0  0  0  0  0  0  0  0
   13.8105    2.3153   23.5927 H   0  0  0  0  0  0  0  0  0  0  0  0
   15.1584    0.8310   22.1677 H   0  0  0  0  0  0  0  0  0  0  0  0
   11.7427   -1.6461   21.5051 H   0  0  0  0  0  0  0  0  0  0  0  0
    6.5101   -1.7947   21.7980 H   0  0  0  0  0  0  0  0  0  0  0  0
    8.0105   -2.3823   21.0043 H   0  0  0  0  0  0  0  0  0  0  0  0
    7.6388   -1.4994   23.8984 H   0  0  0  0  0  0  0  0  0  0  0  0
    8.0741   -3.1303   23.2842 H   0  0  0  0  0  0  0  0  0  0  0  0
   10.0468   -1.9259   24.1744 H   0  0  0  0  0  0  0  0  0  0  0  0
   10.2015   -2.2592   22.4161 H   0  0  0  0  0  0  0  0  0  0  0  0
    6.0180    0.9100   22.6672 H   0  0  0  0  0  0  0  0  0  0  0  0
    4.0102    2.2526   22.9450 H   0  0  0  0  0  0  0  0  0  0  0  0
    2.7847    3.0947   20.9903 H   0  0  0  0  0  0  0  0  0  0  0  0
    3.5249    2.5536   18.7328 H   0  0  0  0  0  0  0  0  0  0  0  0
    5.1495    1.3807   17.2238 H   0  0  0  0  0  0  0  0  0  0  0  0
    8.3724   -0.6975   18.7578 H   0  0  0  0  0  0  0  0  0  0  0  0
  1  2  3  0  0  0  0
  2  3  1  0  0  0  0
  3  4  1  0  0  0  0
  3  5  1  0  0  0  0
  3  6  1  0  0  0  0
  4  5  1  0  0  0  0
  4 37  1  0  0  0  0
  4 38  1  0  0  0  0
  5 39  1  0  0  0  0
  5 40  1  0  0  0  0
  6  7  1  0  0  0  0
  6 41  1  0  0  0  0
  6 42  1  0  0  0  0
  7  8  2  0  0  0  0
  7  9  2  0  0  0  0
  7 10  1  0  0  0  0
 10 11  1  0  0  0  0
 10 12  1  0  0  0  0
 11 15  1  0  0  0  0
 11 43  1  0  0  0  0
 11 44  1  0  0  0  0
 12 13  1  0  0  0  0
 12 45  1  0  0  0  0
 12 46  1  0  0  0  0
 13 14  1  0  0  0  0
 13 21  1  0  0  0  0
 13 26  1  0  0  0  0
 14 15  2  0  0  0  0
 14 18  1  0  0  0  0
 15 16  1  0  0  0  0
 16 17  2  0  0  0  0
 16 47  1  0  0  0  0
 17 19  1  0  0  0  0
 17 48  1  0  0  0  0
 18 19  2  0  0  0  0
 18 49  1  0  0  0  0
 19 20  1  0  0  0  0
 21 22  2  0  0  0  0
 21 23  1  0  0  0  0
 23 24  1  0  0  0  0
 23 27  1  0  0  0  0
 24 25  1  0  0  0  0
 24 50  1  0  0  0  0
 24 51  1  0  0  0  0
 25 26  1  0  0  0  0
 25 52  1  0  0  0  0
 25 53  1  0  0  0  0
 26 54  1  0  0  0  0
 26 55  1  0  0  0  0
 27 28  2  0  0  0  0
 27 36  1  0  0  0  0
 28 29  1  0  0  0  0
 28 33  1  0  0  0  0
 29 30  2  0  0  0  0
 29 56  1  0  0  0  0
 30 31  1  0  0  0  0
 30 57  1  0  0  0  0
 31 32  2  0  0  0  0
 31 58  1  0  0  0  0
 32 33  1  0  0  0  0
 32 59  1  0  0  0  0
 33 34  2  0  0  0  0
 34 35  1  0  0  0  0
 34 60  1  0  0  0  0
 35 36  2  0  0  0  0
 36 61  1  0  0  0  0
M  END
> <compound_name>
ALP-POS-133e7cd9-2

> <provenance>
{"isomeric_smiles": "c1ccc2c(c1)cncc2N3CCC[C@@]4(C3=O)C[N@](Cc5c4cc(cc5)Cl)S(=O)(=O)CC6(CC6)C#N", "inchi": "InChI=1S/C27H25ClN4O3S/c28-21-7-6-20-15-31(36(34,35)18-26(16-29)9-10-26)17-27(23(20)12-21)8-3-11-32(25(27)33)24-14-30-13-19-4-1-2-5-22(19)24/h1-2,4-7,12-14H,3,8-11,15,17-18H2/t27-/m1/s1", "inchi_key": "KBMBYPWORLDFDP-HHHXNRCGSA-N", "fixed_inchi": "InChI=1/C27H25ClN4O3S/c28-21-7-6-20-15-31(36(34,35)18-26(16-29)9-10-26)17-27(23(20)12-21)8-3-11-32(25(27)33)24-14-30-13-19-4-1-2-5-22(19)24/h1-2,4-7,12-14H,3,8-11,15,17-18H2/t27-/m1/s1", "fixed_inchikey": "KBMBYPWORLDFDP-HHHXNRCGNA-N"}

> <data_format>
sdf

$$$$
