LIG(A-306)
  -OEChem-06042511383D

 43 46  0     1  0  0  0  0  0999 V2000
    9.0510    1.0248   21.0309 O   0  0  0  0  0  0  0  0  0  0  0  0
    8.5080    0.0375   21.5021 C   0  0  0  0  0  0  0  0  0  0  0  0
    9.0957   -0.6659   22.7515 C   0  0  1  0  0  0  0  0  0  0  0  0
   10.5673   -0.3860   22.9648 C   0  0  0  0  0  0  0  0  0  0  0  0
   11.5311   -0.9468   22.1288 C   0  0  0  0  0  0  0  0  0  0  0  0
   12.8440   -0.5188   22.1928 C   0  0  0  0  0  0  0  0  0  0  0  0
   14.0174   -1.2360   21.1361 Cl  0  0  0  0  0  0  0  0  0  0  0  0
   13.2151    0.4720   23.0857 C   0  0  0  0  0  0  0  0  0  0  0  0
   14.8712    0.9700   23.2091 Cl  0  0  0  0  0  0  0  0  0  0  0  0
   12.2784    1.0497   23.9217 C   0  0  0  0  0  0  0  0  0  0  0  0
   10.9695    0.6117   23.8567 C   0  0  0  0  0  0  0  0  0  0  0  0
   10.1078    1.1950   24.7567 O   0  0  0  0  0  0  0  0  0  0  0  0
    8.7178    1.2008   24.3719 C   0  0  0  0  0  0  0  0  0  0  0  0
    8.2399   -0.1630   23.9221 C   0  0  0  0  0  0  0  0  0  0  0  0
    8.9019   -2.0431   22.4557 O   0  0  0  0  0  0  0  0  0  0  0  0
    9.1351   -2.9739   23.5220 C   0  0  0  0  0  0  0  0  0  0  0  0
    7.3659   -0.4957   21.0225 N   0  0  0  0  0  0  0  0  0  0  0  0
    6.6438   -0.0037   19.9121 C   0  0  0  0  0  0  0  0  0  0  0  0
    5.5275    0.8494   20.1594 C   0  0  0  0  0  0  0  0  0  0  0  0
    5.0664    1.1848   21.4592 C   0  0  0  0  0  0  0  0  0  0  0  0
    3.9931    2.0122   21.6314 C   0  0  0  0  0  0  0  0  0  0  0  0
    3.3240    2.5421   20.5351 C   0  0  0  0  0  0  0  0  0  0  0  0
    3.7233    2.2406   19.2636 C   0  0  0  0  0  0  0  0  0  0  0  0
    4.8365    1.3924   19.0392 C   0  0  0  0  0  0  0  0  0  0  0  0
    5.3057    1.0539   17.7465 C   0  0  0  0  0  0  0  0  0  0  0  0
    6.3410    0.2549   17.5173 N   0  0  0  0  0  0  0  0  0  0  0  0
    6.9841   -0.2488   18.5828 C   0  0  0  0  0  0  0  0  0  0  0  0
   11.2510   -1.7192   21.4279 H   0  0  0  0  0  0  0  0  0  0  0  0
   12.5641    1.8289   24.6129 H   0  0  0  0  0  0  0  0  0  0  0  0
    8.1136    1.5207   25.2337 H   0  0  0  0  0  0  0  0  0  0  0  0
    8.5828    1.9133   23.5448 H   0  0  0  0  0  0  0  0  0  0  0  0
    8.3197   -0.8705   24.7606 H   0  0  0  0  0  0  0  0  0  0  0  0
    7.1903   -0.0922   23.6006 H   0  0  0  0  0  0  0  0  0  0  0  0
    8.9510   -3.9972   23.1630 H   0  0  0  0  0  0  0  0  0  0  0  0
   10.1773   -2.8870   23.8630 H   0  0  0  0  0  0  0  0  0  0  0  0
    8.4559   -2.7510   24.3581 H   0  0  0  0  0  0  0  0  0  0  0  0
    7.0018   -1.3018   21.4891 H   0  0  0  0  0  0  0  0  0  0  0  0
    5.5711    0.7804   22.3241 H   0  0  0  0  0  0  0  0  0  0  0  0
    3.6614    2.2568   22.6297 H   0  0  0  0  0  0  0  0  0  0  0  0
    2.4804    3.1984   20.6894 H   0  0  0  0  0  0  0  0  0  0  0  0
    3.1858    2.6522   18.4221 H   0  0  0  0  0  0  0  0  0  0  0  0
    4.7895    1.4714   16.8946 H   0  0  0  0  0  0  0  0  0  0  0  0
    7.8301   -0.8934   18.3956 H   0  0  0  0  0  0  0  0  0  0  0  0
  1  2  2  0  0  0  0
  2  3  1  0  0  0  0
  2 17  1  0  0  0  0
  3  4  1  0  0  0  0
  3 14  1  0  0  0  0
  3 15  1  0  0  0  0
  4  5  2  0  0  0  0
  4 11  1  0  0  0  0
  5  6  1  0  0  0  0
  5 28  1  0  0  0  0
  6  7  1  0  0  0  0
  6  8  2  0  0  0  0
  8  9  1  0  0  0  0
  8 10  1  0  0  0  0
 10 11  2  0  0  0  0
 10 29  1  0  0  0  0
 11 12  1  0  0  0  0
 12 13  1  0  0  0  0
 13 14  1  0  0  0  0
 13 30  1  0  0  0  0
 13 31  1  0  0  0  0
 14 32  1  0  0  0  0
 14 33  1  0  0  0  0
 15 16  1  0  0  0  0
 16 34  1  0  0  0  0
 16 35  1  0  0  0  0
 16 36  1  0  0  0  0
 17 18  1  0  0  0  0
 17 37  1  0  0  0  0
 18 19  2  0  0  0  0
 18 27  1  0  0  0  0
 19 20  1  0  0  0  0
 19 24  1  0  0  0  0
 20 21  2  0  0  0  0
 20 38  1  0  0  0  0
 21 22  1  0  0  0  0
 21 39  1  0  0  0  0
 22 23  2  0  0  0  0
 22 40  1  0  0  0  0
 23 24  1  0  0  0  0
 23 41  1  0  0  0  0
 24 25  2  0  0  0  0
 25 26  1  0  0  0  0
 25 42  1  0  0  0  0
 26 27  2  0  0  0  0
 27 43  1  0  0  0  0
M  END
> <compound_name>
EDJ-MED-d08626de-3

> <provenance>
{"isomeric_smiles": "CO[C@]1(CCOc2c1cc(c(c2)Cl)Cl)C(=O)Nc3cncc4c3cccc4", "inchi": "InChI=1S/C20H16Cl2N2O3/c1-26-20(6-7-27-18-9-16(22)15(21)8-14(18)20)19(25)24-17-11-23-10-12-4-2-3-5-13(12)17/h2-5,8-11H,6-7H2,1H3,(H,24,25)/t20-/m0/s1", "inchi_key": "GPTYSZBZQAEHFD-FQEVSTJZSA-N", "fixed_inchi": "InChI=1/C20H16Cl2N2O3/c1-26-20(6-7-27-18-9-16(22)15(21)8-14(18)20)19(25)24-17-11-23-10-12-4-2-3-5-13(12)17/h2-5,8-11H,6-7H2,1H3,(H,24,25)/t20-/m0/s1/f/h24H", "fixed_inchikey": "GPTYSZBZQAEHFD-ZSWWDKBRNA-N"}

> <data_format>
sdf

$$$$
