LIG(A-305)
  -OEChem-06042511363D

 36 38  0     0  0  0  0  0  0999 V2000
   13.5441    0.5142   23.1834 F   0  0  0  0  0  0  0  0  0  0  0  0
   12.3531   -0.0858   23.4645 C   0  0  0  0  0  0  0  0  0  0  0  0
   12.1050   -1.3267   22.9324 C   0  0  0  0  0  0  0  0  0  0  0  0
   10.9450   -1.9796   23.3075 C   0  0  0  0  0  0  0  0  0  0  0  0
   11.4922    0.5443   24.3225 C   0  0  0  0  0  0  0  0  0  0  0  0
   10.3192   -0.1036   24.6666 C   0  0  0  0  0  0  0  0  0  0  0  0
   10.0251   -1.3666   24.1566 C   0  0  0  0  0  0  0  0  0  0  0  0
    8.6940   -1.9805   24.4256 C   0  0  0  0  0  0  0  0  0  0  0  0
    8.1621   -1.8445   25.5286 O   0  0  0  0  0  0  0  0  0  0  0  0
    7.9749   -2.6974   23.3296 C   0  0  0  0  0  0  0  0  0  0  0  0
    7.8558   -2.3773   21.9566 C   0  0  0  0  0  0  0  0  0  0  0  0
    8.3649   -1.1554   21.2467 C   0  0  0  0  0  0  0  0  0  0  0  0
    7.2698   -3.8814   23.5686 N   0  0  0  0  0  0  0  0  0  0  0  0
    7.0138   -4.5284   24.7666 C   0  0  0  0  0  0  0  0  0  0  0  0
    6.2178   -5.6183   24.7846 C   0  0  0  0  0  0  0  0  0  0  0  0
    5.6637   -6.1192   23.5816 C   0  0  0  0  0  0  0  0  0  0  0  0
    5.9136   -5.5092   22.3946 C   0  0  0  0  0  0  0  0  0  0  0  0
    6.7237   -4.3443   22.3666 C   0  0  0  0  0  0  0  0  0  0  0  0
    7.0787   -3.4363   21.3536 C   0  0  0  0  0  0  0  0  0  0  0  0
    6.6976   -3.5792   19.9357 C   0  0  0  0  0  0  0  0  0  0  0  0
    5.9076   -4.4541   19.6227 O   0  0  0  0  0  0  0  0  0  0  0  0
    7.2707   -2.6482   18.8907 C   0  0  0  0  0  0  0  0  0  0  0  0
   12.7974   -1.7811   22.2393 H   0  0  0  0  0  0  0  0  0  0  0  0
   10.7497   -2.9756   22.9383 H   0  0  0  0  0  0  0  0  0  0  0  0
   11.7227    1.5214   24.7205 H   0  0  0  0  0  0  0  0  0  0  0  0
    9.6228    0.3754   25.3388 H   0  0  0  0  0  0  0  0  0  0  0  0
    8.8734   -0.4974   21.9667 H   0  0  0  0  0  0  0  0  0  0  0  0
    9.0738   -1.4564   20.4613 H   0  0  0  0  0  0  0  0  0  0  0  0
    7.5202   -0.6173   20.7916 H   0  0  0  0  0  0  0  0  0  0  0  0
    7.4502   -4.1616   25.6839 H   0  0  0  0  0  0  0  0  0  0  0  0
    6.0024   -6.1108   25.7213 H   0  0  0  0  0  0  0  0  0  0  0  0
    5.0348   -6.9969   23.6085 H   0  0  0  0  0  0  0  0  0  0  0  0
    5.4996   -5.9069   21.4798 H   0  0  0  0  0  0  0  0  0  0  0  0
    6.8619   -2.9085   17.9032 H   0  0  0  0  0  0  0  0  0  0  0  0
    7.0012   -1.6105   19.1369 H   0  0  0  0  0  0  0  0  0  0  0  0
    8.3659   -2.7481   18.8718 H   0  0  0  0  0  0  0  0  0  0  0  0
  1  2  1  0  0  0  0
  2  3  2  0  0  0  0
  2  5  1  0  0  0  0
  3  4  1  0  0  0  0
  3 23  1  0  0  0  0
  4  7  2  0  0  0  0
  4 24  1  0  0  0  0
  5  6  2  0  0  0  0
  5 25  1  0  0  0  0
  6  7  1  0  0  0  0
  6 26  1  0  0  0  0
  7  8  1  0  0  0  0
  8  9  2  0  0  0  0
  8 10  1  0  0  0  0
 10 11  2  0  0  0  0
 10 13  1  0  0  0  0
 11 12  1  0  0  0  0
 11 19  1  0  0  0  0
 12 27  1  0  0  0  0
 12 28  1  0  0  0  0
 12 29  1  0  0  0  0
 13 14  1  0  0  0  0
 13 18  1  0  0  0  0
 14 15  2  0  0  0  0
 14 30  1  0  0  0  0
 15 16  1  0  0  0  0
 15 31  1  0  0  0  0
 16 17  2  0  0  0  0
 16 32  1  0  0  0  0
 17 18  1  0  0  0  0
 17 33  1  0  0  0  0
 18 19  2  0  0  0  0
 19 20  1  0  0  0  0
 20 21  2  0  0  0  0
 20 22  1  0  0  0  0
 22 34  1  0  0  0  0
 22 35  1  0  0  0  0
 22 36  1  0  0  0  0
M  END
> <compound_name>
TAT-ENA-80bfd3e5-4

> <provenance>
{"isomeric_smiles": "Cc1c(c2ccccn2c1C(=O)c3ccc(cc3)F)C(=O)C", "inchi": "InChI=1S/C18H14FNO2/c1-11-16(12(2)21)15-5-3-4-10-20(15)17(11)18(22)13-6-8-14(19)9-7-13/h3-10H,1-2H3", "inchi_key": "NSDJNMWFQYNAQU-UHFFFAOYSA-N", "fixed_inchi": "InChI=1/C18H14FNO2/c1-11-16(12(2)21)15-5-3-4-10-20(15)17(11)18(22)13-6-8-14(19)9-7-13/h3-10H,1-2H3", "fixed_inchikey": "NSDJNMWFQYNAQU-UHFFFAOYNA-N"}

> <data_format>
sdf

$$$$
