LIG(A-306)
  -OEChem-06042511383D

 39 42  0     1  0  0  0  0  0999 V2000
   13.8137   -1.6855   21.3736 Cl  0  0  0  0  0  0  0  0  0  0  0  0
   12.5318   -0.9886   22.3108 C   0  0  0  0  0  0  0  0  0  0  0  0
   12.7959   -0.0646   23.3128 C   0  0  0  0  0  0  0  0  0  0  0  0
   14.4270    0.3855   23.7146 Cl  0  0  0  0  0  0  0  0  0  0  0  0
   11.2288   -1.3427   22.0210 C   0  0  0  0  0  0  0  0  0  0  0  0
   10.1659   -0.7807   22.7202 C   0  0  0  0  0  0  0  0  0  0  0  0
   10.4580    0.1342   23.7392 C   0  0  0  0  0  0  0  0  0  0  0  0
   11.7590    0.5033   24.0280 C   0  0  0  0  0  0  0  0  0  0  0  0
    8.7309   -1.1518   22.4064 C   0  0  1  0  0  0  0  0  0  0  0  0
    7.8820   -0.9679   23.6746 C   0  0  0  0  0  0  0  0  0  0  0  0
    8.1121    0.4081   24.2496 C   0  0  0  0  0  0  0  0  0  0  0  0
    9.5021    0.6631   24.5774 O   0  0  0  0  0  0  0  0  0  0  0  0
    8.2136   -0.2798   21.2595 C   0  0  0  0  0  0  0  0  0  0  0  0
    8.7185    0.8092   20.9775 O   0  0  0  0  0  0  0  0  0  0  0  0
    7.1496   -0.7879   20.6067 N   0  0  0  0  0  0  0  0  0  0  0  0
    6.4084   -0.1819   19.5748 C   0  0  0  0  0  0  0  0  0  0  0  0
    5.3114    0.6721   19.9190 C   0  0  0  0  0  0  0  0  0  0  0  0
    4.8406    0.8600   21.2451 C   0  0  0  0  0  0  0  0  0  0  0  0
    3.8125    1.7229   21.5113 C   0  0  0  0  0  0  0  0  0  0  0  0
    3.2003    2.4329   20.4854 C   0  0  0  0  0  0  0  0  0  0  0  0
    3.6182    2.2840   19.1923 C   0  0  0  0  0  0  0  0  0  0  0  0
    4.6822    1.4021   18.8741 C   0  0  0  0  0  0  0  0  0  0  0  0
    5.1780    1.2271   17.5611 C   0  0  0  0  0  0  0  0  0  0  0  0
    6.1900    0.4342   17.2429 N   0  0  0  0  0  0  0  0  0  0  0  0
    6.7762   -0.2498   18.2328 C   0  0  0  0  0  0  0  0  0  0  0  0
   11.0328   -2.0646   21.2420 H   0  0  0  0  0  0  0  0  0  0  0  0
   11.9623    1.2270   24.8035 H   0  0  0  0  0  0  0  0  0  0  0  0
    8.6893   -2.2074   22.1000 H   0  0  0  0  0  0  0  0  0  0  0  0
    6.8179   -1.0846   23.4216 H   0  0  0  0  0  0  0  0  0  0  0  0
    8.1675   -1.7266   24.4181 H   0  0  0  0  0  0  0  0  0  0  0  0
    7.7836    1.1551   23.5119 H   0  0  0  0  0  0  0  0  0  0  0  0
    7.5121    0.5092   25.1660 H   0  0  0  0  0  0  0  0  0  0  0  0
    6.8525   -1.7004   20.8877 H   0  0  0  0  0  0  0  0  0  0  0  0
    5.3004    0.3140   22.0555 H   0  0  0  0  0  0  0  0  0  0  0  0
    3.4737    1.8535   22.5284 H   0  0  0  0  0  0  0  0  0  0  0  0
    2.3880    3.1078   20.7116 H   0  0  0  0  0  0  0  0  0  0  0  0
    3.1334    2.8432   18.4057 H   0  0  0  0  0  0  0  0  0  0  0  0
    4.6991    1.7771   16.7644 H   0  0  0  0  0  0  0  0  0  0  0  0
    7.5955   -0.9032   17.9717 H   0  0  0  0  0  0  0  0  0  0  0  0
  1  2  1  0  0  0  0
  2  3  2  0  0  0  0
  2  5  1  0  0  0  0
  3  4  1  0  0  0  0
  3  8  1  0  0  0  0
  5  6  2  0  0  0  0
  5 26  1  0  0  0  0
  6  7  1  0  0  0  0
  6  9  1  0  0  0  0
  7  8  2  0  0  0  0
  7 12  1  0  0  0  0
  8 27  1  0  0  0  0
  9 10  1  0  0  0  0
  9 13  1  0  0  0  0
  9 28  1  0  0  0  0
 10 11  1  0  0  0  0
 10 29  1  0  0  0  0
 10 30  1  0  0  0  0
 11 12  1  0  0  0  0
 11 31  1  0  0  0  0
 11 32  1  0  0  0  0
 13 14  2  0  0  0  0
 13 15  1  0  0  0  0
 15 16  1  0  0  0  0
 15 33  1  0  0  0  0
 16 17  2  0  0  0  0
 16 25  1  0  0  0  0
 17 18  1  0  0  0  0
 17 22  1  0  0  0  0
 18 19  2  0  0  0  0
 18 34  1  0  0  0  0
 19 20  1  0  0  0  0
 19 35  1  0  0  0  0
 20 21  2  0  0  0  0
 20 36  1  0  0  0  0
 21 22  1  0  0  0  0
 21 37  1  0  0  0  0
 22 23  2  0  0  0  0
 23 24  1  0  0  0  0
 23 38  1  0  0  0  0
 24 25  2  0  0  0  0
 25 39  1  0  0  0  0
M  END
> <compound_name>
ALP-POS-869ac754-1

> <provenance>
{"isomeric_smiles": "c1ccc2c(c1)cncc2NC(=O)[C@@H]3CCOc4c3cc(c(c4)Cl)Cl", "inchi": "InChI=1S/C19H14Cl2N2O2/c20-15-7-14-13(5-6-25-18(14)8-16(15)21)19(24)23-17-10-22-9-11-3-1-2-4-12(11)17/h1-4,7-10,13H,5-6H2,(H,23,24)/t13-/m1/s1", "inchi_key": "ATZNGVMHQNZVPP-CYBMUJFWSA-N", "fixed_inchi": "InChI=1/C19H14Cl2N2O2/c20-15-7-14-13(5-6-25-18(14)8-16(15)21)19(24)23-17-10-22-9-11-3-1-2-4-12(11)17/h1-4,7-10,13H,5-6H2,(H,23,24)/t13-/m1/s1/f/h23H", "fixed_inchikey": "ATZNGVMHQNZVPP-AGEDDRTLNA-N"}

> <data_format>
sdf

$$$$
