LIG(A-305)
  -OEChem-06042511313D

 21 21  0     0  0  0  0  0  0999 V2000
   10.1781   -0.7284   22.5716 C   0  0  0  0  0  0  0  0  0  0  0  0
    9.2821   -0.1024   21.5045 C   0  0  0  0  0  0  0  0  0  0  0  0
    7.1793   -0.1525   20.1093 C   0  0  0  0  0  0  0  0  0  0  0  0
    7.5514   -0.2145   18.7724 C   0  0  0  0  0  0  0  0  0  0  0  0
    5.6694    0.9135   18.1152 C   0  0  0  0  0  0  0  0  0  0  0  0
    5.2173    1.0314   19.4232 C   0  0  0  0  0  0  0  0  0  0  0  0
    5.9872    0.4824   20.4483 C   0  0  0  0  0  0  0  0  0  0  0  0
    5.5471    0.5834   21.9062 C   0  0  0  0  0  0  0  0  0  0  0  0
    8.0332   -0.7425   21.1284 N   0  0  0  0  0  0  0  0  0  0  0  0
    6.7985    0.3085   17.8233 N   0  0  0  0  0  0  0  0  0  0  0  0
    9.6091    0.9116   20.9926 O   0  0  0  0  0  0  0  0  0  0  0  0
   11.0664   -0.0973   22.7215 H   0  0  0  0  0  0  0  0  0  0  0  0
    9.6214   -0.8082   23.5170 H   0  0  0  0  0  0  0  0  0  0  0  0
   10.4915   -1.7310   22.2450 H   0  0  0  0  0  0  0  0  0  0  0  0
    8.4772   -0.7013   18.5039 H   0  0  0  0  0  0  0  0  0  0  0  0
    5.0759    1.3310   17.3154 H   0  0  0  0  0  0  0  0  0  0  0  0
    4.2887    1.5378   19.6419 H   0  0  0  0  0  0  0  0  0  0  0  0
    6.3062    1.1334   22.4817 H   0  0  0  0  0  0  0  0  0  0  0  0
    4.5866    1.1165   21.9631 H   0  0  0  0  0  0  0  0  0  0  0  0
    5.4308   -0.4271   22.3248 H   0  0  0  0  0  0  0  0  0  0  0  0
    7.7586   -1.5949   21.5734 H   0  0  0  0  0  0  0  0  0  0  0  0
  1  2  1  0  0  0  0
  1 12  1  0  0  0  0
  1 13  1  0  0  0  0
  1 14  1  0  0  0  0
  2  9  1  0  0  0  0
  2 11  2  0  0  0  0
  3  4  2  0  0  0  0
  3  7  1  0  0  0  0
  3  9  1  0  0  0  0
  4 10  1  0  0  0  0
  4 15  1  0  0  0  0
  5  6  1  0  0  0  0
  5 10  2  0  0  0  0
  5 16  1  0  0  0  0
  6  7  2  0  0  0  0
  6 17  1  0  0  0  0
  7  8  1  0  0  0  0
  8 18  1  0  0  0  0
  8 19  1  0  0  0  0
  8 20  1  0  0  0  0
  9 21  1  0  0  0  0
M  END
> <compound_name>
MAK-UNK-6435e6c2-8

> <provenance>
{"isomeric_smiles": "Cc1ccncc1NC(=O)C", "inchi": "InChI=1S/C8H10N2O/c1-6-3-4-9-5-8(6)10-7(2)11/h3-5H,1-2H3,(H,10,11)", "inchi_key": "WRPYDRDMRXJIJA-UHFFFAOYSA-N", "fixed_inchi": "InChI=1/C8H10N2O/c1-6-3-4-9-5-8(6)10-7(2)11/h3-5H,1-2H3,(H,10,11)/f/h10H", "fixed_inchikey": "WRPYDRDMRXJIJA-KZFATGLANA-N"}

> <data_format>
sdf

$$$$
