LIG(A-305)
  -OEChem-06042511323D

 36 38  0     1  0  0  0  0  0999 V2000
    5.1462    0.9041   21.2898 N   0  0  0  0  0  0  0  0  0  0  0  0
    7.5909   -0.4254   20.8704 N   0  0  0  0  0  0  0  0  0  0  0  0
    3.8874    1.1893   21.7270 C   0  0  0  0  0  0  0  0  0  0  0  0
   12.2306    0.8586   23.8227 C   0  0  0  0  0  0  0  0  0  0  0  0
    9.0523    1.3133   20.9862 O   0  0  0  0  0  0  0  0  0  0  0  0
    9.2162   -0.4207   22.6661 C   0  0  1  0  0  0  0  0  0  0  0  0
    5.6350    0.7370   19.9687 C   0  0  0  0  0  0  0  0  0  0  0  0
    6.8388    0.0418   19.7685 C   0  0  0  0  0  0  0  0  0  0  0  0
    7.3276   -0.0713   18.4704 C   0  0  0  0  0  0  0  0  0  0  0  0
    5.5787    1.1491   17.6287 C   0  0  0  0  0  0  0  0  0  0  0  0
   10.9385    0.4149   23.5628 C   0  0  0  0  0  0  0  0  0  0  0  0
   13.0411   -0.6565   22.1785 C   0  0  0  0  0  0  0  0  0  0  0  0
   14.0919   -1.2347   21.5403 F   0  0  0  0  0  0  0  0  0  0  0  0
    9.4596    0.5272   23.8941 C   0  0  0  0  0  0  0  0  0  0  0  0
   13.2984    0.3324   23.1115 C   0  0  0  0  0  0  0  0  0  0  0  0
   11.7749   -1.1192   21.8927 C   0  0  0  0  0  0  0  0  0  0  0  0
    3.7326    1.2423   23.2190 C   0  0  0  0  0  0  0  0  0  0  0  0
    6.7205    0.4779   17.4135 N   0  0  0  0  0  0  0  0  0  0  0  0
    2.9363    1.3875   20.9671 O   0  0  0  0  0  0  0  0  0  0  0  0
    8.6241    0.2464   21.4252 C   0  0  0  0  0  0  0  0  0  0  0  0
    4.9899    1.2992   18.8698 C   0  0  0  0  0  0  0  0  0  0  0  0
   10.7332   -0.5330   22.6019 C   0  0  0  0  0  0  0  0  0  0  0  0
    5.8304    0.7959   22.0111 H   0  0  0  0  0  0  0  0  0  0  0  0
    7.3425   -1.3100   21.2649 H   0  0  0  0  0  0  0  0  0  0  0  0
   12.4022    1.6120   24.5772 H   0  0  0  0  0  0  0  0  0  0  0  0
    8.7149   -1.3600   22.9426 H   0  0  0  0  0  0  0  0  0  0  0  0
    8.2390   -0.6281   18.3096 H   0  0  0  0  0  0  0  0  0  0  0  0
    5.0891    1.6004   16.7784 H   0  0  0  0  0  0  0  0  0  0  0  0
    9.1699    0.1068   24.8684 H   0  0  0  0  0  0  0  0  0  0  0  0
    9.0370    1.5375   23.7904 H   0  0  0  0  0  0  0  0  0  0  0  0
   14.3049    0.6853   23.2814 H   0  0  0  0  0  0  0  0  0  0  0  0
   11.6020   -1.8932   21.1595 H   0  0  0  0  0  0  0  0  0  0  0  0
    2.6874    1.4741   23.4718 H   0  0  0  0  0  0  0  0  0  0  0  0
    4.0068    0.2685   23.6507 H   0  0  0  0  0  0  0  0  0  0  0  0
    4.3905    2.0232   23.6282 H   0  0  0  0  0  0  0  0  0  0  0  0
    4.0594    1.8353   18.9840 H   0  0  0  0  0  0  0  0  0  0  0  0
  1  3  1  0  0  0  0
  1  7  1  0  0  0  0
  1 23  1  0  0  0  0
  2  8  1  0  0  0  0
  2 20  1  0  0  0  0
  2 24  1  0  0  0  0
  3 17  1  0  0  0  0
  3 19  2  0  0  0  0
  4 11  2  0  0  0  0
  4 15  1  0  0  0  0
  4 25  1  0  0  0  0
  5 20  2  0  0  0  0
  6 14  1  0  0  0  0
  6 20  1  0  0  0  0
  6 22  1  0  0  0  0
  6 26  1  0  0  0  0
  7  8  2  0  0  0  0
  7 21  1  0  0  0  0
  8  9  1  0  0  0  0
  9 18  2  0  0  0  0
  9 27  1  0  0  0  0
 10 18  1  0  0  0  0
 10 21  2  0  0  0  0
 10 28  1  0  0  0  0
 11 14  1  0  0  0  0
 11 22  1  0  0  0  0
 12 13  1  0  0  0  0
 12 15  2  0  0  0  0
 12 16  1  0  0  0  0
 14 29  1  0  0  0  0
 14 30  1  0  0  0  0
 15 31  1  0  0  0  0
 16 22  2  0  0  0  0
 16 32  1  0  0  0  0
 17 33  1  0  0  0  0
 17 34  1  0  0  0  0
 17 35  1  0  0  0  0
 21 36  1  0  0  0  0
M  END
> <compound_name>
BAR-COM-0f94fc3d-59

> <provenance>
{"isomeric_smiles": "CC(=O)Nc1ccncc1NC(=O)[C@@H]2Cc3c2cc(cc3)F", "inchi": "InChI=1S/C16H14FN3O2/c1-9(21)19-14-4-5-18-8-15(14)20-16(22)13-6-10-2-3-11(17)7-12(10)13/h2-5,7-8,13H,6H2,1H3,(H,20,22)(H,18,19,21)/t13-/m1/s1", "inchi_key": "OVXVQSQKNSMPOY-CYBMUJFWSA-N", "fixed_inchi": "InChI=1/C16H14FN3O2/c1-9(21)19-14-4-5-18-8-15(14)20-16(22)13-6-10-2-3-11(17)7-12(10)13/h2-5,7-8,13H,6H2,1H3,(H,20,22)(H,18,19,21)/t13-/m1/s1/f/h19-20H", "fixed_inchikey": "OVXVQSQKNSMPOY-KRIMEHBDNA-N"}

> <data_format>
sdf

$$$$
