LIG(A-305)
  -OEChem-06042511353D

 34 35  0     0  0  0  0  0  0999 V2000
   13.2082   -1.6962   22.0281 F   0  0  0  0  0  0  0  0  0  0  0  0
   13.0323   -1.6673   23.3701 C   0  0  0  0  0  0  0  0  0  0  0  0
   13.8443   -2.4504   24.1579 C   0  0  0  0  0  0  0  0  0  0  0  0
   13.6935   -2.3825   25.5330 C   0  0  0  0  0  0  0  0  0  0  0  0
   12.7596   -1.5305   26.0841 C   0  0  0  0  0  0  0  0  0  0  0  0
   11.9496   -0.7553   25.2632 C   0  0  0  0  0  0  0  0  0  0  0  0
   12.0584   -0.8273   23.8742 C   0  0  0  0  0  0  0  0  0  0  0  0
   11.1104   -0.0291   23.0033 C   0  0  0  0  0  0  0  0  0  0  0  0
    9.9633   -0.8650   22.3894 C   0  0  0  0  0  0  0  0  0  0  0  0
    9.1153   -0.0549   21.4345 C   0  0  0  0  0  0  0  0  0  0  0  0
    9.4593    1.0601   21.0545 O   0  0  0  0  0  0  0  0  0  0  0  0
    7.9812   -0.6528   21.0226 N   0  0  0  0  0  0  0  0  0  0  0  0
    7.1362   -0.0776   20.0317 C   0  0  0  0  0  0  0  0  0  0  0  0
    5.9453    0.5804   20.4128 C   0  0  0  0  0  0  0  0  0  0  0  0
    5.5574    0.7534   21.8598 C   0  0  0  0  0  0  0  0  0  0  0  0
    7.4651   -0.1116   18.6756 C   0  0  0  0  0  0  0  0  0  0  0  0
    6.7110    0.4335   17.7137 N   0  0  0  0  0  0  0  0  0  0  0  0
    5.5751    1.0296   18.0889 C   0  0  0  0  0  0  0  0  0  0  0  0
    5.1602    1.1256   19.4009 C   0  0  0  0  0  0  0  0  0  0  0  0
   14.5821   -3.1027   23.7144 H   0  0  0  0  0  0  0  0  0  0  0  0
   14.3077   -2.9973   26.1742 H   0  0  0  0  0  0  0  0  0  0  0  0
   12.6575   -1.4654   27.1573 H   0  0  0  0  0  0  0  0  0  0  0  0
   11.2255   -0.0878   25.7067 H   0  0  0  0  0  0  0  0  0  0  0  0
   10.6665    0.7689   23.6167 H   0  0  0  0  0  0  0  0  0  0  0  0
   11.6895    0.4187   22.1823 H   0  0  0  0  0  0  0  0  0  0  0  0
   10.3975   -1.7156   21.8435 H   0  0  0  0  0  0  0  0  0  0  0  0
    9.3231   -1.2390   23.2019 H   0  0  0  0  0  0  0  0  0  0  0  0
    7.7239   -1.5307   21.4264 H   0  0  0  0  0  0  0  0  0  0  0  0
    6.3348    1.3304   22.3820 H   0  0  0  0  0  0  0  0  0  0  0  0
    4.5993    1.2903   21.9209 H   0  0  0  0  0  0  0  0  0  0  0  0
    5.4548   -0.2347   22.3324 H   0  0  0  0  0  0  0  0  0  0  0  0
    8.3805   -0.6060   18.3860 H   0  0  0  0  0  0  0  0  0  0  0  0
    4.9475    1.4599   17.3225 H   0  0  0  0  0  0  0  0  0  0  0  0
    4.2313    1.6210   19.6417 H   0  0  0  0  0  0  0  0  0  0  0  0
  1  2  1  0  0  0  0
  2  3  2  0  0  0  0
  2  7  1  0  0  0  0
  3  4  1  0  0  0  0
  3 20  1  0  0  0  0
  4  5  2  0  0  0  0
  4 21  1  0  0  0  0
  5  6  1  0  0  0  0
  5 22  1  0  0  0  0
  6  7  2  0  0  0  0
  6 23  1  0  0  0  0
  7  8  1  0  0  0  0
  8  9  1  0  0  0  0
  8 24  1  0  0  0  0
  8 25  1  0  0  0  0
  9 10  1  0  0  0  0
  9 26  1  0  0  0  0
  9 27  1  0  0  0  0
 10 11  2  0  0  0  0
 10 12  1  0  0  0  0
 12 13  1  0  0  0  0
 12 28  1  0  0  0  0
 13 14  2  0  0  0  0
 13 16  1  0  0  0  0
 14 15  1  0  0  0  0
 14 19  1  0  0  0  0
 15 29  1  0  0  0  0
 15 30  1  0  0  0  0
 15 31  1  0  0  0  0
 16 17  2  0  0  0  0
 16 32  1  0  0  0  0
 17 18  1  0  0  0  0
 18 19  2  0  0  0  0
 18 33  1  0  0  0  0
 19 34  1  0  0  0  0
M  END
> <compound_name>
BEN-DND-93268d01-7

> <provenance>
{"isomeric_smiles": "Cc1ccncc1NC(=O)CCc2ccccc2F", "inchi": "InChI=1S/C15H15FN2O/c1-11-8-9-17-10-14(11)18-15(19)7-6-12-4-2-3-5-13(12)16/h2-5,8-10H,6-7H2,1H3,(H,18,19)", "inchi_key": "QOFPSTBMBIOUPW-UHFFFAOYSA-N", "fixed_inchi": "InChI=1/C15H15FN2O/c1-11-8-9-17-10-14(11)18-15(19)7-6-12-4-2-3-5-13(12)16/h2-5,8-10H,6-7H2,1H3,(H,18,19)/f/h18H", "fixed_inchikey": "QOFPSTBMBIOUPW-GPQMBLKYNA-N"}

> <data_format>
sdf

$$$$
