LIG(A-305)
  -OEChem-06042511373D

 39 42  0     1  0  0  0  0  0999 V2000
   13.9408   -1.8084   20.9239 Cl  0  0  0  0  0  0  0  0  0  0  0  0
   12.9638   -0.9005   22.0399 C   0  0  0  0  0  0  0  0  0  0  0  0
   13.5788   -0.0535   22.9349 C   0  0  0  0  0  0  0  0  0  0  0  0
   12.8028    0.6505   23.8369 C   0  0  0  0  0  0  0  0  0  0  0  0
   11.5938   -1.0555   22.0049 C   0  0  0  0  0  0  0  0  0  0  0  0
   10.7948   -0.3385   22.8920 C   0  0  0  0  0  0  0  0  0  0  0  0
   11.4238    0.5085   23.8070 C   0  0  0  0  0  0  0  0  0  0  0  0
   10.7188    1.2575   24.7150 O   0  0  0  0  0  0  0  0  0  0  0  0
    9.5318    0.6075   25.1810 C   0  0  0  0  0  0  0  0  0  0  0  0
    8.5728    0.2935   24.0570 C   0  0  0  0  0  0  0  0  0  0  0  0
    9.2818   -0.4405   22.8740 C   0  0  1  0  0  0  0  0  0  0  0  0
    8.7998    0.1785   21.5610 C   0  0  0  0  0  0  0  0  0  0  0  0
    9.3518    1.1515   21.0580 O   0  0  0  0  0  0  0  0  0  0  0  0
    7.6898   -0.3915   21.0370 N   0  0  0  0  0  0  0  0  0  0  0  0
    6.9408    0.1405   19.9520 C   0  0  0  0  0  0  0  0  0  0  0  0
    7.3768   -0.0285   18.6400 C   0  0  0  0  0  0  0  0  0  0  0  0
    6.7358    0.4605   17.5760 N   0  0  0  0  0  0  0  0  0  0  0  0
    5.5978    1.1275   17.7870 C   0  0  0  0  0  0  0  0  0  0  0  0
    5.7548    0.8595   20.1710 C   0  0  0  0  0  0  0  0  0  0  0  0
    5.0118    1.2785   21.2670 N   0  0  0  0  0  0  0  0  0  0  0  0
    5.3078    1.0885   22.6820 C   0  0  0  0  0  0  0  0  0  0  0  0
    5.0568    1.3375   19.0520 C   0  0  0  0  0  0  0  0  0  0  0  0
    3.8958    1.9895   19.4560 N   0  0  0  0  0  0  0  0  0  0  0  0
    3.9298    1.9265   20.7620 C   0  0  0  0  0  0  0  0  0  0  0  0
   14.6529    0.0593   22.9322 H   0  0  0  0  0  0  0  0  0  0  0  0
   13.2670    1.3058   24.5592 H   0  0  0  0  0  0  0  0  0  0  0  0
   11.1425   -1.7302   21.2925 H   0  0  0  0  0  0  0  0  0  0  0  0
    9.8147   -0.3322   25.6779 H   0  0  0  0  0  0  0  0  0  0  0  0
    9.0274    1.2666   25.9029 H   0  0  0  0  0  0  0  0  0  0  0  0
    7.7693   -0.3502   24.4445 H   0  0  0  0  0  0  0  0  0  0  0  0
    8.1414    1.2343   23.6844 H   0  0  0  0  0  0  0  0  0  0  0  0
    8.9919   -1.5014   22.8965 H   0  0  0  0  0  0  0  0  0  0  0  0
    7.3735   -1.2492   21.4424 H   0  0  0  0  0  0  0  0  0  0  0  0
    8.2859   -0.5874   18.4739 H   0  0  0  0  0  0  0  0  0  0  0  0
    5.0705    1.5242   16.9320 H   0  0  0  0  0  0  0  0  0  0  0  0
    6.2697    1.5646   22.9231 H   0  0  0  0  0  0  0  0  0  0  0  0
    4.5111    1.5449   23.2877 H   0  0  0  0  0  0  0  0  0  0  0  0
    5.3657    0.0125   22.9031 H   0  0  0  0  0  0  0  0  0  0  0  0
    3.1606    2.3546   21.3878 H   0  0  0  0  0  0  0  0  0  0  0  0
  1  2  1  0  0  0  0
  2  3  2  0  0  0  0
  2  5  1  0  0  0  0
  3  4  1  0  0  0  0
  3 25  1  0  0  0  0
  4  7  2  0  0  0  0
  4 26  1  0  0  0  0
  5  6  2  0  0  0  0
  5 27  1  0  0  0  0
  6  7  1  0  0  0  0
  6 11  1  0  0  0  0
  7  8  1  0  0  0  0
  8  9  1  0  0  0  0
  9 10  1  0  0  0  0
  9 28  1  0  0  0  0
  9 29  1  0  0  0  0
 10 11  1  0  0  0  0
 10 30  1  0  0  0  0
 10 31  1  0  0  0  0
 11 12  1  0  0  0  0
 11 32  1  0  0  0  0
 12 13  2  0  0  0  0
 12 14  1  0  0  0  0
 14 15  1  0  0  0  0
 14 33  1  0  0  0  0
 15 16  2  0  0  0  0
 15 19  1  0  0  0  0
 16 17  1  0  0  0  0
 16 34  1  0  0  0  0
 17 18  2  0  0  0  0
 18 22  1  0  0  0  0
 18 35  1  0  0  0  0
 19 20  1  0  0  0  0
 19 22  2  0  0  0  0
 20 21  1  0  0  0  0
 20 24  1  0  0  0  0
 21 36  1  0  0  0  0
 21 37  1  0  0  0  0
 21 38  1  0  0  0  0
 22 23  1  0  0  0  0
 23 24  2  0  0  0  0
 24 39  1  0  0  0  0
M  END
> <compound_name>
MAT-POS-2bb0cf2b-2

> <provenance>
{"isomeric_smiles": "Cn1cnc2c1c(cnc2)NC(=O)[C@@H]3CCOc4c3cc(cc4)Cl", "inchi": "InChI=1S/C17H15ClN4O2/c1-22-9-20-13-7-19-8-14(16(13)22)21-17(23)11-4-5-24-15-3-2-10(18)6-12(11)15/h2-3,6-9,11H,4-5H2,1H3,(H,21,23)/t11-/m1/s1", "inchi_key": "BKYVVDKZFPPWFC-LLVKDONJSA-N", "fixed_inchi": "InChI=1/C17H15ClN4O2/c1-22-9-20-13-7-19-8-14(16(13)22)21-17(23)11-4-5-24-15-3-2-10(18)6-12(11)15/h2-3,6-9,11H,4-5H2,1H3,(H,21,23)/t11-/m1/s1/f/h21H", "fixed_inchikey": "BKYVVDKZFPPWFC-VVARPINJNA-N"}

> <data_format>
sdf

$$$$
