LIG(A-306)
  -OEChem-06042511413D

 47 51  0     1  0  0  0  0  0999 V2000
    9.3589    1.2707   21.1113 O   0  0  0  0  0  0  0  0  0  0  0  0
    8.9100    0.3117   21.7153 C   0  0  0  0  0  0  0  0  0  0  0  0
    9.6132   -0.2133   22.9662 C   0  0  2  0  0  0  0  0  0  0  0  0
    8.9823    0.4997   24.1863 C   0  0  0  0  0  0  0  0  0  0  0  0
    9.5233    1.8977   24.3843 C   0  0  0  0  0  0  0  0  0  0  0  0
   10.9693    1.8697   24.4451 N   0  0  0  0  0  0  0  0  0  0  0  0
   11.1282    0.0407   22.8830 C   0  0  0  0  0  0  0  0  0  0  0  0
   11.7112    1.1108   23.5800 C   0  0  0  0  0  0  0  0  0  0  0  0
   13.0612    1.4068   23.4018 C   0  0  0  0  0  0  0  0  0  0  0  0
   13.8331    0.6478   22.5417 C   0  0  0  0  0  0  0  0  0  0  0  0
   11.9241   -0.7482   22.0509 C   0  0  0  0  0  0  0  0  0  0  0  0
   13.2581   -0.4212   21.8848 C   0  0  0  0  0  0  0  0  0  0  0  0
   14.2210   -1.3451   20.7657 Cl  0  0  0  0  0  0  0  0  0  0  0  0
    7.7390   -0.2923   21.3314 N   0  0  0  0  0  0  0  0  0  0  0  0
    7.3971   -1.6904   21.6385 C   0  0  0  0  0  0  0  0  0  0  0  0
    7.9123   -2.1064   22.9994 C   0  0  0  0  0  0  0  0  0  0  0  0
    9.3813   -1.7313   23.1422 C   0  0  0  0  0  0  0  0  0  0  0  0
    7.0049    0.1806   20.1925 C   0  0  0  0  0  0  0  0  0  0  0  0
    5.8289    0.9786   20.3297 C   0  0  0  0  0  0  0  0  0  0  0  0
    5.2910    1.3896   21.5778 C   0  0  0  0  0  0  0  0  0  0  0  0
    4.1710    2.1705   21.6379 C   0  0  0  0  0  0  0  0  0  0  0  0
    3.5308    2.5795   20.4780 C   0  0  0  0  0  0  0  0  0  0  0  0
    4.0077    2.2096   19.2519 C   0  0  0  0  0  0  0  0  0  0  0  0
    5.1667    1.4036   19.1408 C   0  0  0  0  0  0  0  0  0  0  0  0
    5.7206    1.0116   17.8977 C   0  0  0  0  0  0  0  0  0  0  0  0
    6.8126    0.2697   17.7736 N   0  0  0  0  0  0  0  0  0  0  0  0
    7.4197   -0.1313   18.8995 C   0  0  0  0  0  0  0  0  0  0  0  0
    7.8944    0.5606   24.0354 H   0  0  0  0  0  0  0  0  0  0  0  0
    9.1948   -0.0919   25.0891 H   0  0  0  0  0  0  0  0  0  0  0  0
    9.2071    2.5322   23.5432 H   0  0  0  0  0  0  0  0  0  0  0  0
    9.1279    2.3106   25.3240 H   0  0  0  0  0  0  0  0  0  0  0  0
   11.3965    2.7295   24.7248 H   0  0  0  0  0  0  0  0  0  0  0  0
   13.5062    2.2322   23.9376 H   0  0  0  0  0  0  0  0  0  0  0  0
   14.8743    0.8888   22.3857 H   0  0  0  0  0  0  0  0  0  0  0  0
   11.5037   -1.6036   21.5430 H   0  0  0  0  0  0  0  0  0  0  0  0
    6.3029   -1.8016   21.6222 H   0  0  0  0  0  0  0  0  0  0  0  0
    7.8434   -2.3428   20.8736 H   0  0  0  0  0  0  0  0  0  0  0  0
    7.3294   -1.5961   23.7803 H   0  0  0  0  0  0  0  0  0  0  0  0
    7.8024   -3.1951   23.1124 H   0  0  0  0  0  0  0  0  0  0  0  0
    9.7279   -2.0295   24.1427 H   0  0  0  0  0  0  0  0  0  0  0  0
    9.9608   -2.2697   22.3779 H   0  0  0  0  0  0  0  0  0  0  0  0
    5.7740    1.0806   22.4930 H   0  0  0  0  0  0  0  0  0  0  0  0
    3.7806    2.4721   22.5987 H   0  0  0  0  0  0  0  0  0  0  0  0
    2.6468    3.1964   20.5441 H   0  0  0  0  0  0  0  0  0  0  0  0
    3.4954    2.5352   18.3587 H   0  0  0  0  0  0  0  0  0  0  0  0
    5.2232    1.3368   16.9959 H   0  0  0  0  0  0  0  0  0  0  0  0
    8.3017   -0.7459   18.7960 H   0  0  0  0  0  0  0  0  0  0  0  0
  1  2  2  0  0  0  0
  2  3  1  0  0  0  0
  2 14  1  0  0  0  0
  3  4  1  0  0  0  0
  3  7  1  0  0  0  0
  3 17  1  0  0  0  0
  4  5  1  0  0  0  0
  4 28  1  0  0  0  0
  4 29  1  0  0  0  0
  5  6  1  0  0  0  0
  5 30  1  0  0  0  0
  5 31  1  0  0  0  0
  6  8  1  0  0  0  0
  6 32  1  0  0  0  0
  7  8  1  0  0  0  0
  7 11  2  0  0  0  0
  8  9  2  0  0  0  0
  9 10  1  0  0  0  0
  9 33  1  0  0  0  0
 10 12  2  0  0  0  0
 10 34  1  0  0  0  0
 11 12  1  0  0  0  0
 11 35  1  0  0  0  0
 12 13  1  0  0  0  0
 14 15  1  0  0  0  0
 14 18  1  0  0  0  0
 15 16  1  0  0  0  0
 15 36  1  0  0  0  0
 15 37  1  0  0  0  0
 16 17  1  0  0  0  0
 16 38  1  0  0  0  0
 16 39  1  0  0  0  0
 17 40  1  0  0  0  0
 17 41  1  0  0  0  0
 18 19  2  0  0  0  0
 18 27  1  0  0  0  0
 19 20  1  0  0  0  0
 19 24  1  0  0  0  0
 20 21  2  0  0  0  0
 20 42  1  0  0  0  0
 21 22  1  0  0  0  0
 21 43  1  0  0  0  0
 22 23  2  0  0  0  0
 22 44  1  0  0  0  0
 23 24  1  0  0  0  0
 23 45  1  0  0  0  0
 24 25  2  0  0  0  0
 25 26  1  0  0  0  0
 25 46  1  0  0  0  0
 26 27  2  0  0  0  0
 27 47  1  0  0  0  0
M  END
> <compound_name>
ALP-POS-e0fe77e5-13

> <provenance>
{"isomeric_smiles": "c1ccc2c(c1)cncc2N3CCC[C@@]4(C3=O)CCNc5c4cc(cc5)Cl", "inchi": "InChI=1S/C22H20ClN3O/c23-16-6-7-19-18(12-16)22(9-10-25-19)8-3-11-26(21(22)27)20-14-24-13-15-4-1-2-5-17(15)20/h1-2,4-7,12-14,25H,3,8-11H2/t22-/m1/s1", "inchi_key": "GMEVLWIDIJTOMX-JOCHJYFZSA-N", "fixed_inchi": "InChI=1/C22H20ClN3O/c23-16-6-7-19-18(12-16)22(9-10-25-19)8-3-11-26(21(22)27)20-14-24-13-15-4-1-2-5-17(15)20/h1-2,4-7,12-14,25H,3,8-11H2/t22-/m1/s1", "fixed_inchikey": "GMEVLWIDIJTOMX-JOCHJYFZNA-N"}

> <data_format>
sdf

$$$$
