LIG(A-305)
  -OEChem-06042511373D

 40 43  0     1  0  0  0  0  0999 V2000
   13.9234   -1.7710   20.9263 Cl  0  0  0  0  0  0  0  0  0  0  0  0
   12.8233   -0.9240   21.9782 C   0  0  0  0  0  0  0  0  0  0  0  0
   13.3142    0.0480   22.8232 C   0  0  0  0  0  0  0  0  0  0  0  0
   12.4452    0.6970   23.6812 C   0  0  0  0  0  0  0  0  0  0  0  0
   11.4833   -1.2541   21.9503 C   0  0  0  0  0  0  0  0  0  0  0  0
   10.5943   -0.5942   22.7963 C   0  0  0  0  0  0  0  0  0  0  0  0
   11.0982    0.3699   23.6622 C   0  0  0  0  0  0  0  0  0  0  0  0
   10.2912    1.0309   24.5492 O   0  0  0  0  0  0  0  0  0  0  0  0
    9.2993    0.1768   25.1332 C   0  0  0  0  0  0  0  0  0  0  0  0
    8.3613   -0.4243   24.1103 C   0  0  0  0  0  0  0  0  0  0  0  0
    9.1033   -0.8593   22.7933 C   0  0  1  0  0  0  0  0  0  0  0  0
    8.5312   -0.0924   21.5983 C   0  0  0  0  0  0  0  0  0  0  0  0
    9.1832    0.7626   21.0022 O   0  0  0  0  0  0  0  0  0  0  0  0
    7.2203   -0.3345   21.3553 N   0  0  0  0  0  0  0  0  0  0  0  0
    6.4182    0.0584   20.2673 C   0  0  0  0  0  0  0  0  0  0  0  0
    6.9312    0.3124   19.0093 C   0  0  0  0  0  0  0  0  0  0  0  0
    5.1052    0.5413   20.5803 C   0  0  0  0  0  0  0  0  0  0  0  0
    4.4121    1.2982   19.5923 C   0  0  0  0  0  0  0  0  0  0  0  0
    5.0171    1.5022   18.3482 C   0  0  0  0  0  0  0  0  0  0  0  0
    6.2441    1.0153   18.0793 N   0  0  0  0  0  0  0  0  0  0  0  0
    6.8011    1.2713   16.9252 O   0  0  0  0  0  0  0  0  0  0  0  0
    3.1681    1.8861   19.9213 C   0  0  0  0  0  0  0  0  0  0  0  0
    2.6331    1.7262   21.1663 C   0  0  0  0  0  0  0  0  0  0  0  0
    3.2952    0.9813   22.1293 C   0  0  0  0  0  0  0  0  0  0  0  0
    4.4982    0.3963   21.8523 C   0  0  0  0  0  0  0  0  0  0  0  0
   14.3644    0.2997   22.8153 H   0  0  0  0  0  0  0  0  0  0  0  0
   12.8128    1.4522   24.3601 H   0  0  0  0  0  0  0  0  0  0  0  0
   11.1262   -2.0192   21.2768 H   0  0  0  0  0  0  0  0  0  0  0  0
    9.8090   -0.6404   25.6645 H   0  0  0  0  0  0  0  0  0  0  0  0
    8.7067    0.7658   25.8488 H   0  0  0  0  0  0  0  0  0  0  0  0
    7.8785   -1.3087   24.5514 H   0  0  0  0  0  0  0  0  0  0  0  0
    7.5950    0.3219   23.8532 H   0  0  0  0  0  0  0  0  0  0  0  0
    8.9310   -1.9348   22.6396 H   0  0  0  0  0  0  0  0  0  0  0  0
    6.7516   -0.8740   22.0548 H   0  0  0  0  0  0  0  0  0  0  0  0
    7.9129   -0.0626   18.7603 H   0  0  0  0  0  0  0  0  0  0  0  0
    4.4906    2.0608   17.5885 H   0  0  0  0  0  0  0  0  0  0  0  0
    2.6374    2.4664   19.1808 H   0  0  0  0  0  0  0  0  0  0  0  0
    1.6844    2.1845   21.4036 H   0  0  0  0  0  0  0  0  0  0  0  0
    2.8556    0.8620   23.1086 H   0  0  0  0  0  0  0  0  0  0  0  0
    4.9944   -0.1857   22.6148 H   0  0  0  0  0  0  0  0  0  0  0  0
  1  2  1  0  0  0  0
  2  3  2  0  0  0  0
  2  5  1  0  0  0  0
  3  4  1  0  0  0  0
  3 26  1  0  0  0  0
  4  7  2  0  0  0  0
  4 27  1  0  0  0  0
  5  6  2  0  0  0  0
  5 28  1  0  0  0  0
  6  7  1  0  0  0  0
  6 11  1  0  0  0  0
  7  8  1  0  0  0  0
  8  9  1  0  0  0  0
  9 10  1  0  0  0  0
  9 29  1  0  0  0  0
  9 30  1  0  0  0  0
 10 11  1  0  0  0  0
 10 31  1  0  0  0  0
 10 32  1  0  0  0  0
 11 12  1  0  0  0  0
 11 33  1  0  0  0  0
 12 13  2  0  0  0  0
 12 14  1  0  0  0  0
 14 15  1  0  0  0  0
 14 34  1  0  0  0  0
 15 16  2  0  0  0  0
 15 17  1  0  0  0  0
 16 20  1  0  0  0  0
 16 35  1  0  0  0  0
 17 18  2  0  0  0  0
 17 25  1  0  0  0  0
 18 19  1  0  0  0  0
 18 22  1  0  0  0  0
 19 20  2  0  0  0  0
 19 36  1  0  0  0  0
 20 21  2  0  0  0  0
 22 23  2  0  0  0  0
 22 37  1  0  0  0  0
 23 24  1  0  0  0  0
 23 38  1  0  0  0  0
 24 25  2  0  0  0  0
 24 39  1  0  0  0  0
 25 40  1  0  0  0  0
M  END
> <compound_name>
EDJ-MED-eff36d94-1

> <provenance>
{"isomeric_smiles": "c1ccc2c(c1)cn(=O)cc2NC(=O)[C@@H]3CCOc4c3cc(cc4)Cl", "inchi": "InChI=1S/C19H15ClN2O3/c20-13-5-6-18-16(9-13)15(7-8-25-18)19(23)21-17-11-22(24)10-12-3-1-2-4-14(12)17/h1-6,9-11,15H,7-8H2,(H,21,23)/t15-/m1/s1", "inchi_key": "CJFRFTLFKMUSPS-OAHLLOKOSA-N", "fixed_inchi": "InChI=1/C19H15ClN2O3/c20-13-5-6-18-16(9-13)15(7-8-25-18)19(23)21-17-11-22(24)10-12-3-1-2-4-14(12)17/h1-6,9-11,15H,7-8H2,(H,21,23)/t15-/m1/s1/f/h21H", "fixed_inchikey": "CJFRFTLFKMUSPS-SSAYTPASNA-N"}

> <data_format>
sdf

$$$$
