LIG(A-306)
  -OEChem-06042511423D

 53 56  0     1  0  0  0  0  0999 V2000
   11.1168    0.8718   26.2979 O   0  0  0  0  0  0  0  0  0  0  0  0
   11.1851    1.6685   25.1108 S   0  0  0  0  0  0  0  0  0  0  0  0
   11.6932    3.0020   25.1982 O   0  0  0  0  0  0  0  0  0  0  0  0
    9.6900    1.7333   24.4458 N   0  0  1  0  0  0  0  0  0  0  0  0
    9.4908    2.7231   23.3718 C   0  0  0  0  0  0  0  0  0  0  0  0
    8.2388    3.5569   23.5705 C   0  0  0  0  0  0  0  0  0  0  0  0
    7.7958    3.7844   24.6948 O   0  0  0  0  0  0  0  0  0  0  0  0
    7.6583    4.0058   22.4629 N   0  0  0  0  0  0  0  0  0  0  0  0
    6.3698    4.6727   22.4778 C   0  0  0  0  0  0  0  0  0  0  0  0
   12.0576    0.8027   23.8651 C   0  0  0  0  0  0  0  0  0  0  0  0
   13.3724    1.1640   23.6184 C   0  0  0  0  0  0  0  0  0  0  0  0
   14.0904    0.4851   22.6547 C   0  0  0  0  0  0  0  0  0  0  0  0
   13.4927   -0.5542   21.9777 C   0  0  0  0  0  0  0  0  0  0  0  0
   14.3395   -1.2825   20.6447 Cl  0  0  0  0  0  0  0  0  0  0  0  0
   12.1949   -0.9495   22.2383 C   0  0  0  0  0  0  0  0  0  0  0  0
   11.4230   -0.2253   23.1463 C   0  0  0  0  0  0  0  0  0  0  0  0
    9.9025   -0.4337   23.1379 C   0  0  2  0  0  0  0  0  0  0  0  0
    9.1288    0.3857   24.2113 C   0  0  0  0  0  0  0  0  0  0  0  0
    9.6382   -1.9353   23.3615 C   0  0  0  0  0  0  0  0  0  0  0  0
    9.2789    0.0264   21.7894 C   0  0  0  0  0  0  0  0  0  0  0  0
    9.8087    0.9075   21.1316 O   0  0  0  0  0  0  0  0  0  0  0  0
    8.0955   -0.5261   21.4251 N   0  0  0  0  0  0  0  0  0  0  0  0
    7.3168   -0.1737   20.2992 C   0  0  0  0  0  0  0  0  0  0  0  0
    6.1267    0.5900   20.5055 C   0  0  0  0  0  0  0  0  0  0  0  0
    5.6059    0.9078   21.7844 C   0  0  0  0  0  0  0  0  0  0  0  0
    4.4346    1.5958   21.9163 C   0  0  0  0  0  0  0  0  0  0  0  0
    3.7310    2.0180   20.7967 C   0  0  0  0  0  0  0  0  0  0  0  0
    4.1949    1.7502   19.5411 C   0  0  0  0  0  0  0  0  0  0  0  0
    5.3972    1.0254   19.3590 C   0  0  0  0  0  0  0  0  0  0  0  0
    5.8998    0.6656   18.0810 C   0  0  0  0  0  0  0  0  0  0  0  0
    6.9920   -0.0580   17.8899 N   0  0  0  0  0  0  0  0  0  0  0  0
    7.6686   -0.4599   18.9776 C   0  0  0  0  0  0  0  0  0  0  0  0
   10.3612    3.3952   23.3465 H   0  0  0  0  0  0  0  0  0  0  0  0
    9.4107    2.1906   22.4125 H   0  0  0  0  0  0  0  0  0  0  0  0
    8.1259    3.8796   21.5881 H   0  0  0  0  0  0  0  0  0  0  0  0
    6.0903    4.9544   21.4519 H   0  0  0  0  0  0  0  0  0  0  0  0
    5.6101    3.9930   22.8911 H   0  0  0  0  0  0  0  0  0  0  0  0
    6.4320    5.5762   23.1020 H   0  0  0  0  0  0  0  0  0  0  0  0
   13.8306    1.9685   24.1744 H   0  0  0  0  0  0  0  0  0  0  0  0
   15.1096    0.7660   22.4341 H   0  0  0  0  0  0  0  0  0  0  0  0
   11.7805   -1.8145   21.7418 H   0  0  0  0  0  0  0  0  0  0  0  0
    8.0859    0.4963   23.8793 H   0  0  0  0  0  0  0  0  0  0  0  0
    9.1547   -0.1715   25.1594 H   0  0  0  0  0  0  0  0  0  0  0  0
    8.5540   -2.1213   23.3612 H   0  0  0  0  0  0  0  0  0  0  0  0
   10.1097   -2.5147   22.5540 H   0  0  0  0  0  0  0  0  0  0  0  0
   10.0625   -2.2421   24.3289 H   0  0  0  0  0  0  0  0  0  0  0  0
    7.7386   -1.2542   22.0104 H   0  0  0  0  0  0  0  0  0  0  0  0
    6.1444    0.6008   22.6687 H   0  0  0  0  0  0  0  0  0  0  0  0
    4.0511    1.8140   22.9021 H   0  0  0  0  0  0  0  0  0  0  0  0
    2.8073    2.5639   20.9202 H   0  0  0  0  0  0  0  0  0  0  0  0
    3.6406    2.0939   18.6803 H   0  0  0  0  0  0  0  0  0  0  0  0
    5.3574    1.0032   17.2102 H   0  0  0  0  0  0  0  0  0  0  0  0
    8.5571   -1.0528   18.8181 H   0  0  0  0  0  0  0  0  0  0  0  0
  1  2  2  0  0  0  0
  2  3  2  0  0  0  0
  2  4  1  0  0  0  0
  2 10  1  0  0  0  0
  4  5  1  0  0  0  0
  4 18  1  0  0  0  0
  5  6  1  0  0  0  0
  5 33  1  0  0  0  0
  5 34  1  0  0  0  0
  6  7  2  0  0  0  0
  6  8  1  0  0  0  0
  8  9  1  0  0  0  0
  8 35  1  0  0  0  0
  9 36  1  0  0  0  0
  9 37  1  0  0  0  0
  9 38  1  0  0  0  0
 10 11  2  0  0  0  0
 10 16  1  0  0  0  0
 11 12  1  0  0  0  0
 11 39  1  0  0  0  0
 12 13  2  0  0  0  0
 12 40  1  0  0  0  0
 13 14  1  0  0  0  0
 13 15  1  0  0  0  0
 15 16  2  0  0  0  0
 15 41  1  0  0  0  0
 16 17  1  0  0  0  0
 17 18  1  0  0  0  0
 17 19  1  0  0  0  0
 17 20  1  0  0  0  0
 18 42  1  0  0  0  0
 18 43  1  0  0  0  0
 19 44  1  0  0  0  0
 19 45  1  0  0  0  0
 19 46  1  0  0  0  0
 20 21  2  0  0  0  0
 20 22  1  0  0  0  0
 22 23  1  0  0  0  0
 22 47  1  0  0  0  0
 23 24  2  0  0  0  0
 23 32  1  0  0  0  0
 24 25  1  0  0  0  0
 24 29  1  0  0  0  0
 25 26  2  0  0  0  0
 25 48  1  0  0  0  0
 26 27  1  0  0  0  0
 26 49  1  0  0  0  0
 27 28  2  0  0  0  0
 27 50  1  0  0  0  0
 28 29  1  0  0  0  0
 28 51  1  0  0  0  0
 29 30  2  0  0  0  0
 30 31  1  0  0  0  0
 30 52  1  0  0  0  0
 31 32  2  0  0  0  0
 32 53  1  0  0  0  0
M  END
> <compound_name>
MAT-POS-e119ab4f-5

> <provenance>
{"isomeric_smiles": "C[C@]1(C[N@@](S(=O)(=O)c2c1cc(cc2)Cl)CC(=O)NC)C(=O)Nc3cncc4c3cccc4", "inchi": "InChI=1S/C22H21ClN4O4S/c1-22(21(29)26-18-11-25-10-14-5-3-4-6-16(14)18)13-27(12-20(28)24-2)32(30,31)19-8-7-15(23)9-17(19)22/h3-11H,12-13H2,1-2H3,(H,24,28)(H,26,29)/t22-/m1/s1", "inchi_key": "CJGIVGQVTPDSHN-JOCHJYFZSA-N", "fixed_inchi": "InChI=1/C22H21ClN4O4S/c1-22(21(29)26-18-11-25-10-14-5-3-4-6-16(14)18)13-27(12-20(28)24-2)32(30,31)19-8-7-15(23)9-17(19)22/h3-11H,12-13H2,1-2H3,(H,24,28)(H,26,29)/t22-/m1/s1/f/h24,26H", "fixed_inchikey": "CJGIVGQVTPDSHN-BTXJFNIRNA-N"}

> <data_format>
sdf

$$$$
