LIG(A-306)
  -OEChem-06042511413D

 42 44  0     0  0  0  0  0  0999 V2000
   14.0975   -1.5020   21.5059 Cl  0  0  0  0  0  0  0  0  0  0  0  0
   12.8162   -0.7830   22.4447 C   0  0  0  0  0  0  0  0  0  0  0  0
   13.1214    0.2058   23.3576 C   0  0  0  0  0  0  0  0  0  0  0  0
   12.0966    0.7452   24.1184 C   0  0  0  0  0  0  0  0  0  0  0  0
   10.7887    0.3239   23.9285 C   0  0  0  0  0  0  0  0  0  0  0  0
   11.5212   -1.2264   22.2566 C   0  0  0  0  0  0  0  0  0  0  0  0
   10.4845   -0.6488   22.9837 C   0  0  0  0  0  0  0  0  0  0  0  0
    9.0478   -0.9912   22.6582 C   0  0  0  0  0  0  0  0  0  0  0  0
    8.5014   -0.1444   21.5244 C   0  0  0  0  0  0  0  0  0  0  0  0
    9.0625    0.8903   21.1565 O   0  0  0  0  0  0  0  0  0  0  0  0
    7.3633   -0.6143   20.9663 N   0  0  0  0  0  0  0  0  0  0  0  0
    6.6413   -0.0624   19.8871 C   0  0  0  0  0  0  0  0  0  0  0  0
    7.0469   -0.1596   18.5565 C   0  0  0  0  0  0  0  0  0  0  0  0
    6.4199    0.4149   17.5185 N   0  0  0  0  0  0  0  0  0  0  0  0
    5.3384    1.1359   17.7802 C   0  0  0  0  0  0  0  0  0  0  0  0
    5.4669    0.7077   20.1681 C   0  0  0  0  0  0  0  0  0  0  0  0
    4.8061    1.3335   19.0773 C   0  0  0  0  0  0  0  0  0  0  0  0
    3.6647    2.1286   19.3324 C   0  0  0  0  0  0  0  0  0  0  0  0
    3.1873    2.2913   20.5983 C   0  0  0  0  0  0  0  0  0  0  0  0
    4.9455    0.8953   21.4721 C   0  0  0  0  0  0  0  0  0  0  0  0
    3.8042    1.6755   21.7032 C   0  0  0  0  0  0  0  0  0  0  0  0
    3.2756    1.8103   22.9769 N   0  0  0  0  0  0  0  0  0  0  0  0
    3.7862    1.0277   24.0960 C   0  0  0  0  0  0  0  0  0  0  0  0
    2.4100    2.9324   23.3196 C   0  0  0  0  0  0  0  0  0  0  0  0
   14.1374    0.5520   23.4764 H   0  0  0  0  0  0  0  0  0  0  0  0
   12.3170    1.4966   24.8622 H   0  0  0  0  0  0  0  0  0  0  0  0
    9.9972    0.7570   24.5221 H   0  0  0  0  0  0  0  0  0  0  0  0
   11.3147   -2.0163   21.5497 H   0  0  0  0  0  0  0  0  0  0  0  0
    8.9928   -2.0507   22.3676 H   0  0  0  0  0  0  0  0  0  0  0  0
    8.4317   -0.8243   23.5541 H   0  0  0  0  0  0  0  0  0  0  0  0
    6.9892   -1.4515   21.3652 H   0  0  0  0  0  0  0  0  0  0  0  0
    7.9322   -0.7410   18.3456 H   0  0  0  0  0  0  0  0  0  0  0  0
    4.8303    1.6031   16.9496 H   0  0  0  0  0  0  0  0  0  0  0  0
    3.1627    2.6155   18.5094 H   0  0  0  0  0  0  0  0  0  0  0  0
    2.3147    2.9075   20.7575 H   0  0  0  0  0  0  0  0  0  0  0  0
    5.4400    0.4252   22.3093 H   0  0  0  0  0  0  0  0  0  0  0  0
    3.2309    1.2873   25.0093 H   0  0  0  0  0  0  0  0  0  0  0  0
    3.6593   -0.0438   23.8820 H   0  0  0  0  0  0  0  0  0  0  0  0
    4.8540    1.2487   24.2409 H   0  0  0  0  0  0  0  0  0  0  0  0
    2.1020    2.8504   24.3725 H   0  0  0  0  0  0  0  0  0  0  0  0
    2.9560    3.8755   23.1699 H   0  0  0  0  0  0  0  0  0  0  0  0
    1.5189    2.9182   22.6749 H   0  0  0  0  0  0  0  0  0  0  0  0
  1  2  1  0  0  0  0
  2  3  2  0  0  0  0
  2  6  1  0  0  0  0
  3  4  1  0  0  0  0
  3 25  1  0  0  0  0
  4  5  2  0  0  0  0
  4 26  1  0  0  0  0
  5  7  1  0  0  0  0
  5 27  1  0  0  0  0
  6  7  2  0  0  0  0
  6 28  1  0  0  0  0
  7  8  1  0  0  0  0
  8  9  1  0  0  0  0
  8 29  1  0  0  0  0
  8 30  1  0  0  0  0
  9 10  2  0  0  0  0
  9 11  1  0  0  0  0
 11 12  1  0  0  0  0
 11 31  1  0  0  0  0
 12 13  2  0  0  0  0
 12 16  1  0  0  0  0
 13 14  1  0  0  0  0
 13 32  1  0  0  0  0
 14 15  2  0  0  0  0
 15 17  1  0  0  0  0
 15 33  1  0  0  0  0
 16 17  2  0  0  0  0
 16 20  1  0  0  0  0
 17 18  1  0  0  0  0
 18 19  2  0  0  0  0
 18 34  1  0  0  0  0
 19 21  1  0  0  0  0
 19 35  1  0  0  0  0
 20 21  2  0  0  0  0
 20 36  1  0  0  0  0
 21 22  1  0  0  0  0
 22 23  1  0  0  0  0
 22 24  1  0  0  0  0
 23 37  1  0  0  0  0
 23 38  1  0  0  0  0
 23 39  1  0  0  0  0
 24 40  1  0  0  0  0
 24 41  1  0  0  0  0
 24 42  1  0  0  0  0
M  END
> <compound_name>
PET-UNK-d899bab6-1

> <provenance>
{"isomeric_smiles": "CN(C)c1ccc2cncc(c2c1)NC(=O)Cc3cccc(c3)Cl", "inchi": "InChI=1S/C19H18ClN3O/c1-23(2)16-7-6-14-11-21-12-18(17(14)10-16)22-19(24)9-13-4-3-5-15(20)8-13/h3-8,10-12H,9H2,1-2H3,(H,22,24)", "inchi_key": "YDRXFINTBCAEPL-UHFFFAOYSA-N", "fixed_inchi": "InChI=1/C19H18ClN3O/c1-23(2)16-7-6-14-11-21-12-18(17(14)10-16)22-19(24)9-13-4-3-5-15(20)8-13/h3-8,10-12H,9H2,1-2H3,(H,22,24)/f/h22H", "fixed_inchikey": "YDRXFINTBCAEPL-QWOVJGMINA-N"}

> <data_format>
sdf

$$$$
