LIG(A-305)
  -OEChem-06042511343D

 37 39  0     0  0  0  0  0  0999 V2000
    9.0940    1.1556   21.2148 O   0  0  0  0  0  0  0  0  0  0  0  0
    8.8800    0.0376   21.6658 C   0  0  0  0  0  0  0  0  0  0  0  0
    7.9581   -0.9305   20.9308 C   0  0  0  0  0  0  0  0  0  0  0  0
    7.2431   -0.2695   19.8608 N   0  0  0  0  0  0  0  0  0  0  0  0
    6.0751    0.4324   19.9057 C   0  0  0  0  0  0  0  0  0  0  0  0
    5.2600    0.8744   20.9417 C   0  0  0  0  0  0  0  0  0  0  0  0
    4.1890    1.6943   20.6106 C   0  0  0  0  0  0  0  0  0  0  0  0
    3.9350    2.0413   19.2836 C   0  0  0  0  0  0  0  0  0  0  0  0
    4.7451    1.5823   18.2566 C   0  0  0  0  0  0  0  0  0  0  0  0
    5.8331    0.7744   18.5797 C   0  0  0  0  0  0  0  0  0  0  0  0
    6.8532    0.2734   17.8037 N   0  0  0  0  0  0  0  0  0  0  0  0
    7.6932   -0.3445   18.5828 N   0  0  0  0  0  0  0  0  0  0  0  0
    9.4250   -0.3773   22.8308 N   0  0  0  0  0  0  0  0  0  0  0  0
    8.9711   -1.5333   23.6019 C   0  0  0  0  0  0  0  0  0  0  0  0
   10.5900    0.3128   23.3739 C   0  0  0  0  0  0  0  0  0  0  0  0
   11.8030   -0.5852   23.3869 C   0  0  0  0  0  0  0  0  0  0  0  0
   12.2720   -1.1181   24.5869 C   0  0  0  0  0  0  0  0  0  0  0  0
   13.3051   -2.0371   24.5690 C   0  0  0  0  0  0  0  0  0  0  0  0
   13.8281   -2.7500   26.0790 Cl  0  0  0  0  0  0  0  0  0  0  0  0
   13.9121   -2.4241   23.3890 C   0  0  0  0  0  0  0  0  0  0  0  0
   13.4601   -1.8751   22.1940 C   0  0  0  0  0  0  0  0  0  0  0  0
   12.4131   -0.9652   22.1969 C   0  0  0  0  0  0  0  0  0  0  0  0
    8.5612   -1.7470   20.5072 H   0  0  0  0  0  0  0  0  0  0  0  0
    7.2309   -1.3441   21.6450 H   0  0  0  0  0  0  0  0  0  0  0  0
    5.4525    0.5907   21.9658 H   0  0  0  0  0  0  0  0  0  0  0  0
    3.5437    2.0686   21.3916 H   0  0  0  0  0  0  0  0  0  0  0  0
    3.0937    2.6778   19.0525 H   0  0  0  0  0  0  0  0  0  0  0  0
    4.5376    1.8450   17.2298 H   0  0  0  0  0  0  0  0  0  0  0  0
    9.5917   -1.6398   24.5039 H   0  0  0  0  0  0  0  0  0  0  0  0
    7.9206   -1.3891   23.8945 H   0  0  0  0  0  0  0  0  0  0  0  0
    9.0590   -2.4413   22.9872 H   0  0  0  0  0  0  0  0  0  0  0  0
   10.8045    1.1958   22.7539 H   0  0  0  0  0  0  0  0  0  0  0  0
   10.3696    0.6322   24.4031 H   0  0  0  0  0  0  0  0  0  0  0  0
   11.8310   -0.8149   25.5250 H   0  0  0  0  0  0  0  0  0  0  0  0
   14.7217   -3.1388   23.3951 H   0  0  0  0  0  0  0  0  0  0  0  0
   13.9254   -2.1579   21.2613 H   0  0  0  0  0  0  0  0  0  0  0  0
   12.0676   -0.5467   21.2631 H   0  0  0  0  0  0  0  0  0  0  0  0
  1  2  2  0  0  0  0
  2  3  1  0  0  0  0
  2 13  1  0  0  0  0
  3  4  1  0  0  0  0
  3 23  1  0  0  0  0
  3 24  1  0  0  0  0
  4  5  1  0  0  0  0
  4 12  1  0  0  0  0
  5  6  2  0  0  0  0
  5 10  1  0  0  0  0
  6  7  1  0  0  0  0
  6 25  1  0  0  0  0
  7  8  2  0  0  0  0
  7 26  1  0  0  0  0
  8  9  1  0  0  0  0
  8 27  1  0  0  0  0
  9 10  2  0  0  0  0
  9 28  1  0  0  0  0
 10 11  1  0  0  0  0
 11 12  2  0  0  0  0
 13 14  1  0  0  0  0
 13 15  1  0  0  0  0
 14 29  1  0  0  0  0
 14 30  1  0  0  0  0
 14 31  1  0  0  0  0
 15 16  1  0  0  0  0
 15 32  1  0  0  0  0
 15 33  1  0  0  0  0
 16 17  2  0  0  0  0
 16 22  1  0  0  0  0
 17 18  1  0  0  0  0
 17 34  1  0  0  0  0
 18 19  1  0  0  0  0
 18 20  2  0  0  0  0
 20 21  1  0  0  0  0
 20 35  1  0  0  0  0
 21 22  2  0  0  0  0
 21 36  1  0  0  0  0
 22 37  1  0  0  0  0
M  END
> <compound_name>
EDJ-MED-06d94977-2

> <provenance>
{"isomeric_smiles": "CN(Cc1cccc(c1)Cl)C(=O)Cn2c3ccccc3nn2", "inchi": "InChI=1S/C16H15ClN4O/c1-20(10-12-5-4-6-13(17)9-12)16(22)11-21-15-8-3-2-7-14(15)18-19-21/h2-9H,10-11H2,1H3", "inchi_key": "HSYVELSOLBWEKK-UHFFFAOYSA-N", "fixed_inchi": "InChI=1/C16H15ClN4O/c1-20(10-12-5-4-6-13(17)9-12)16(22)11-21-15-8-3-2-7-14(15)18-19-21/h2-9H,10-11H2,1H3", "fixed_inchikey": "HSYVELSOLBWEKK-UHFFFAOYNA-N"}

> <data_format>
sdf

$$$$
