LIG(A-305)
  -OEChem-06042511313D

 44 47  0     0  0  0  0  0  0999 V2000
    6.6437    1.0498   16.9345 O   0  0  0  0  0  0  0  0  0  0  0  0
    6.0497    0.8209   17.9866 C   0  0  0  0  0  0  0  0  0  0  0  0
    6.3736   -0.2552   18.8565 C   0  0  0  0  0  0  0  0  0  0  0  0
    5.0579    1.6620   18.4157 N   0  0  0  0  0  0  0  0  0  0  0  0
    4.3950    1.5391   19.6307 C   0  0  0  0  0  0  0  0  0  0  0  0
    4.7389    0.4850   20.5017 C   0  0  0  0  0  0  0  0  0  0  0  0
    4.0690    0.3671   21.7217 C   0  0  0  0  0  0  0  0  0  0  0  0
    3.0582    1.2572   22.0489 C   0  0  0  0  0  0  0  0  0  0  0  0
    2.7092    2.2703   21.1819 C   0  0  0  0  0  0  0  0  0  0  0  0
    3.3791    2.4302   19.9789 C   0  0  0  0  0  0  0  0  0  0  0  0
    5.7777   -0.4471   20.0606 C   0  0  0  0  0  0  0  0  0  0  0  0
    6.1636   -1.6522   20.8475 C   0  0  0  0  0  0  0  0  0  0  0  0
    5.6454   -2.7231   20.5715 O   0  0  0  0  0  0  0  0  0  0  0  0
    7.0747   -1.5334   21.8304 N   0  0  0  0  0  0  0  0  0  0  0  0
    7.3536   -2.6355   22.7624 C   0  0  0  0  0  0  0  0  0  0  0  0
    8.8386   -2.9757   22.7352 C   0  0  0  0  0  0  0  0  0  0  0  0
    7.8879   -0.3335   22.0734 C   0  0  0  0  0  0  0  0  0  0  0  0
    9.3719   -0.6898   22.0582 C   0  0  0  0  0  0  0  0  0  0  0  0
    9.6458   -1.7778   23.0062 N   0  0  0  0  0  0  0  0  0  0  0  0
   10.9848   -1.9601   23.4650 C   0  0  0  0  0  0  0  0  0  0  0  0
   11.2458   -2.7591   24.6010 C   0  0  0  0  0  0  0  0  0  0  0  0
   10.2157   -3.4250   25.1751 F   0  0  0  0  0  0  0  0  0  0  0  0
   12.0758   -1.3512   22.8480 C   0  0  0  0  0  0  0  0  0  0  0  0
   13.3548   -1.5224   23.3618 C   0  0  0  0  0  0  0  0  0  0  0  0
   13.5678   -2.2925   24.4938 C   0  0  0  0  0  0  0  0  0  0  0  0
   12.5078   -2.9203   25.1249 C   0  0  0  0  0  0  0  0  0  0  0  0
    7.1331   -0.9563   18.5433 H   0  0  0  0  0  0  0  0  0  0  0  0
    4.7942    2.4165   17.8193 H   0  0  0  0  0  0  0  0  0  0  0  0
    4.3391   -0.4190   22.4113 H   0  0  0  0  0  0  0  0  0  0  0  0
    2.5396    1.1562   22.9908 H   0  0  0  0  0  0  0  0  0  0  0  0
    1.9072    2.9452   21.4420 H   0  0  0  0  0  0  0  0  0  0  0  0
    3.1163    3.2402   19.3146 H   0  0  0  0  0  0  0  0  0  0  0  0
    7.0675   -2.3332   23.7805 H   0  0  0  0  0  0  0  0  0  0  0  0
    6.7714   -3.5203   22.4653 H   0  0  0  0  0  0  0  0  0  0  0  0
    9.0499   -3.7358   23.5018 H   0  0  0  0  0  0  0  0  0  0  0  0
    9.1010   -3.3724   21.7434 H   0  0  0  0  0  0  0  0  0  0  0  0
    7.6845    0.4084   21.2872 H   0  0  0  0  0  0  0  0  0  0  0  0
    7.6261    0.0902   23.0541 H   0  0  0  0  0  0  0  0  0  0  0  0
    9.6575   -1.0106   21.0456 H   0  0  0  0  0  0  0  0  0  0  0  0
    9.9602    0.1952   22.3421 H   0  0  0  0  0  0  0  0  0  0  0  0
   11.9264   -0.7443   21.9673 H   0  0  0  0  0  0  0  0  0  0  0  0
   14.1937   -1.0494   22.8730 H   0  0  0  0  0  0  0  0  0  0  0  0
   14.5677   -2.4037   24.8865 H   0  0  0  0  0  0  0  0  0  0  0  0
   12.6675   -3.5223   26.0072 H   0  0  0  0  0  0  0  0  0  0  0  0
  1  2  2  0  0  0  0
  2  3  1  0  0  0  0
  2  4  1  0  0  0  0
  3 11  2  0  0  0  0
  3 27  1  0  0  0  0
  4  5  1  0  0  0  0
  4 28  1  0  0  0  0
  5  6  2  0  0  0  0
  5 10  1  0  0  0  0
  6  7  1  0  0  0  0
  6 11  1  0  0  0  0
  7  8  2  0  0  0  0
  7 29  1  0  0  0  0
  8  9  1  0  0  0  0
  8 30  1  0  0  0  0
  9 10  2  0  0  0  0
  9 31  1  0  0  0  0
 10 32  1  0  0  0  0
 11 12  1  0  0  0  0
 12 13  2  0  0  0  0
 12 14  1  0  0  0  0
 14 15  1  0  0  0  0
 14 17  1  0  0  0  0
 15 16  1  0  0  0  0
 15 33  1  0  0  0  0
 15 34  1  0  0  0  0
 16 19  1  0  0  0  0
 16 35  1  0  0  0  0
 16 36  1  0  0  0  0
 17 18  1  0  0  0  0
 17 37  1  0  0  0  0
 17 38  1  0  0  0  0
 18 19  1  0  0  0  0
 18 39  1  0  0  0  0
 18 40  1  0  0  0  0
 19 20  1  0  0  0  0
 20 21  2  0  0  0  0
 20 23  1  0  0  0  0
 21 22  1  0  0  0  0
 21 26  1  0  0  0  0
 23 24  2  0  0  0  0
 23 41  1  0  0  0  0
 24 25  1  0  0  0  0
 24 42  1  0  0  0  0
 25 26  2  0  0  0  0
 25 43  1  0  0  0  0
 26 44  1  0  0  0  0
M  END
> <compound_name>
BEN-DND-7e92b6ca-16

> <provenance>
{"isomeric_smiles": "c1ccc2c(c1)c(cc(=O)[nH]2)C(=O)N3CCN(CC3)c4ccccc4F", "inchi": "InChI=1S/C20H18FN3O2/c21-16-6-2-4-8-18(16)23-9-11-24(12-10-23)20(26)15-13-19(25)22-17-7-3-1-5-14(15)17/h1-8,13H,9-12H2,(H,22,25)", "inchi_key": "ONQQLMKVMVPYKH-UHFFFAOYSA-N", "fixed_inchi": "InChI=1/C20H18FN3O2/c21-16-6-2-4-8-18(16)23-9-11-24(12-10-23)20(26)15-13-19(25)22-17-7-3-1-5-14(15)17/h1-8,13H,9-12H2,(H,22,25)/f/h22H", "fixed_inchikey": "ONQQLMKVMVPYKH-QWOVJGMINA-N"}

> <data_format>
sdf

$$$$
