LIG(A-305)
  -OEChem-06042511343D

 40 41  0     0  0  0  0  0  0999 V2000
    9.3303    0.5586   21.0970 O   0  0  0  0  0  0  0  0  0  0  0  0
    8.4133    0.1145   21.7799 C   0  0  0  0  0  0  0  0  0  0  0  0
    7.1203    0.1246   21.3949 N   0  0  0  0  0  0  0  0  0  0  0  0
    6.5564    0.2527   20.1018 C   0  0  0  0  0  0  0  0  0  0  0  0
    7.2824    0.0027   18.9369 C   0  0  0  0  0  0  0  0  0  0  0  0
    6.8895    0.3848   17.7169 N   0  0  0  0  0  0  0  0  0  0  0  0
    5.7295    1.0408   17.6268 C   0  0  0  0  0  0  0  0  0  0  0  0
    4.9264    1.3198   18.7118 C   0  0  0  0  0  0  0  0  0  0  0  0
    5.3214    0.9157   19.9848 C   0  0  0  0  0  0  0  0  0  0  0  0
    4.4653    1.2256   21.1848 C   0  0  0  0  0  0  0  0  0  0  0  0
    8.6382   -0.4025   23.1859 C   0  0  0  0  0  0  0  0  0  0  0  0
    9.7372   -1.4876   23.3259 C   0  0  0  0  0  0  0  0  0  0  0  0
    9.4692   -2.5735   22.2718 C   0  0  0  0  0  0  0  0  0  0  0  0
    9.6021   -2.1456   24.7038 C   0  0  0  0  0  0  0  0  0  0  0  0
   11.1232   -0.8456   23.1820 C   0  0  0  0  0  0  0  0  0  0  0  0
   11.4682    0.2614   23.9540 C   0  0  0  0  0  0  0  0  0  0  0  0
   12.6952    0.8854   23.7891 C   0  0  0  0  0  0  0  0  0  0  0  0
   13.6002    0.4044   22.8651 C   0  0  0  0  0  0  0  0  0  0  0  0
   13.2833   -0.7026   22.1091 C   0  0  0  0  0  0  0  0  0  0  0  0
   12.0532   -1.3226   22.2600 C   0  0  0  0  0  0  0  0  0  0  0  0
    6.4575    0.0265   22.1372 H   0  0  0  0  0  0  0  0  0  0  0  0
    8.2172   -0.5309   19.0256 H   0  0  0  0  0  0  0  0  0  0  0  0
    5.4032    1.3704   16.6514 H   0  0  0  0  0  0  0  0  0  0  0  0
    3.9952    1.8493   18.5754 H   0  0  0  0  0  0  0  0  0  0  0  0
    5.0250    1.8703   21.8785 H   0  0  0  0  0  0  0  0  0  0  0  0
    3.5515    1.7442   20.8591 H   0  0  0  0  0  0  0  0  0  0  0  0
    4.1939    0.2887   21.6933 H   0  0  0  0  0  0  0  0  0  0  0  0
    8.9203    0.4505   23.8204 H   0  0  0  0  0  0  0  0  0  0  0  0
    7.6909   -0.8300   23.5462 H   0  0  0  0  0  0  0  0  0  0  0  0
   10.2366   -3.3578   22.3494 H   0  0  0  0  0  0  0  0  0  0  0  0
    8.4761   -3.0141   22.4438 H   0  0  0  0  0  0  0  0  0  0  0  0
    9.5029   -2.1259   21.2676 H   0  0  0  0  0  0  0  0  0  0  0  0
   10.3759   -2.9189   24.8188 H   0  0  0  0  0  0  0  0  0  0  0  0
    9.7259   -1.3838   25.4876 H   0  0  0  0  0  0  0  0  0  0  0  0
    8.6073   -2.6062   24.7941 H   0  0  0  0  0  0  0  0  0  0  0  0
   10.7722    0.6376   24.6891 H   0  0  0  0  0  0  0  0  0  0  0  0
   12.9435    1.7507   24.3858 H   0  0  0  0  0  0  0  0  0  0  0  0
   14.5540    0.8943   22.7352 H   0  0  0  0  0  0  0  0  0  0  0  0
   13.9963   -1.0888   21.3958 H   0  0  0  0  0  0  0  0  0  0  0  0
   11.8125   -2.1851   21.6563 H   0  0  0  0  0  0  0  0  0  0  0  0
  1  2  2  0  0  0  0
  2  3  1  0  0  0  0
  2 11  1  0  0  0  0
  3  4  1  0  0  0  0
  3 21  1  0  0  0  0
  4  5  2  0  0  0  0
  4  9  1  0  0  0  0
  5  6  1  0  0  0  0
  5 22  1  0  0  0  0
  6  7  2  0  0  0  0
  7  8  1  0  0  0  0
  7 23  1  0  0  0  0
  8  9  2  0  0  0  0
  8 24  1  0  0  0  0
  9 10  1  0  0  0  0
 10 25  1  0  0  0  0
 10 26  1  0  0  0  0
 10 27  1  0  0  0  0
 11 12  1  0  0  0  0
 11 28  1  0  0  0  0
 11 29  1  0  0  0  0
 12 13  1  0  0  0  0
 12 14  1  0  0  0  0
 12 15  1  0  0  0  0
 13 30  1  0  0  0  0
 13 31  1  0  0  0  0
 13 32  1  0  0  0  0
 14 33  1  0  0  0  0
 14 34  1  0  0  0  0
 14 35  1  0  0  0  0
 15 16  2  0  0  0  0
 15 20  1  0  0  0  0
 16 17  1  0  0  0  0
 16 36  1  0  0  0  0
 17 18  2  0  0  0  0
 17 37  1  0  0  0  0
 18 19  1  0  0  0  0
 18 38  1  0  0  0  0
 19 20  2  0  0  0  0
 19 39  1  0  0  0  0
 20 40  1  0  0  0  0
M  END
> <compound_name>
BEN-DND-93268d01-13

> <provenance>
{"isomeric_smiles": "Cc1ccncc1NC(=O)CC(C)(C)c2ccccc2", "inchi": "InChI=1S/C17H20N2O/c1-13-9-10-18-12-15(13)19-16(20)11-17(2,3)14-7-5-4-6-8-14/h4-10,12H,11H2,1-3H3,(H,19,20)", "inchi_key": "BLCPNJMZJGFGAP-UHFFFAOYSA-N", "fixed_inchi": "InChI=1/C17H20N2O/c1-13-9-10-18-12-15(13)19-16(20)11-17(2,3)14-7-5-4-6-8-14/h4-10,12H,11H2,1-3H3,(H,19,20)/f/h19H", "fixed_inchikey": "BLCPNJMZJGFGAP-LILDFLRNNA-N"}

> <data_format>
sdf

$$$$
