LIG(A-305)
  -OEChem-06042511333D

 40 43  0     1  0  0  0  0  0999 V2000
   10.6456   -0.5274   23.1832 N   0  0  0  0  0  0  0  0  0  0  0  0
    6.4992    0.6160   17.4186 N   0  0  0  0  0  0  0  0  0  0  0  0
   11.4998    1.4836   23.7321 N   0  0  0  0  0  0  0  0  0  0  0  0
   10.4258    0.7607   23.6072 C   0  0  0  0  0  0  0  0  0  0  0  0
    7.2294   -0.5291   20.9365 C   0  0  0  0  0  0  0  0  0  0  0  0
   12.5347    0.5835   23.3560 O   0  0  0  0  0  0  0  0  0  0  0  0
    7.7978   -0.4061   25.1815 C   0  0  0  0  0  0  0  0  0  0  0  0
    6.5444    0.1460   19.7746 C   0  0  0  0  0  0  0  0  0  0  0  0
    7.0212   -0.0020   18.4836 C   0  0  0  0  0  0  0  0  0  0  0  0
    5.4473    1.4241   17.6257 C   0  0  0  0  0  0  0  0  0  0  0  0
    4.8954    1.6431   18.8758 C   0  0  0  0  0  0  0  0  0  0  0  0
   12.7475   -1.6955   22.5470 C   0  0  0  0  0  0  0  0  0  0  0  0
    9.0108    1.2218   23.8544 C   0  0  2  0  0  0  0  0  0  0  0  0
    8.5269    0.9338   25.2854 C   0  0  0  0  0  0  0  0  0  0  0  0
   11.9256   -0.5715   23.0431 C   0  0  0  0  0  0  0  0  0  0  0  0
   14.0694   -1.3926   21.9109 C   0  0  0  0  0  0  0  0  0  0  0  0
    8.0976    0.4759   21.6665 C   0  0  0  0  0  0  0  0  0  0  0  0
    8.0687    0.4609   23.0205 N   0  0  0  0  0  0  0  0  0  0  0  0
    8.7606    1.2928   21.0434 O   0  0  0  0  0  0  0  0  0  0  0  0
    7.1177   -0.3241   23.8305 C   0  0  0  0  0  0  0  0  0  0  0  0
    5.4574    0.9931   19.9587 C   0  0  0  0  0  0  0  0  0  0  0  0
   14.0315   -2.0066   23.2549 C   0  0  0  0  0  0  0  0  0  0  0  0
    6.4717   -0.9284   21.6268 H   0  0  0  0  0  0  0  0  0  0  0  0
    7.8564   -1.3526   20.5641 H   0  0  0  0  0  0  0  0  0  0  0  0
    8.5079   -1.2456   25.2156 H   0  0  0  0  0  0  0  0  0  0  0  0
    7.0594   -0.5174   25.9892 H   0  0  0  0  0  0  0  0  0  0  0  0
    7.8660   -0.6563   18.3268 H   0  0  0  0  0  0  0  0  0  0  0  0
    5.0107    1.9275   16.7758 H   0  0  0  0  0  0  0  0  0  0  0  0
    4.0498    2.3030   19.0017 H   0  0  0  0  0  0  0  0  0  0  0  0
   12.2010   -2.5579   22.1377 H   0  0  0  0  0  0  0  0  0  0  0  0
    8.9255    2.2987   23.6468 H   0  0  0  0  0  0  0  0  0  0  0  0
    7.8426    1.7229   25.6305 H   0  0  0  0  0  0  0  0  0  0  0  0
    9.3795    0.8598   25.9765 H   0  0  0  0  0  0  0  0  0  0  0  0
   14.4109   -1.9827   21.0476 H   0  0  0  0  0  0  0  0  0  0  0  0
   14.3955   -0.3487   21.7937 H   0  0  0  0  0  0  0  0  0  0  0  0
    6.1479    0.1894   23.9078 H   0  0  0  0  0  0  0  0  0  0  0  0
    6.9688   -1.3264   23.4026 H   0  0  0  0  0  0  0  0  0  0  0  0
    5.0519    1.1434   20.9483 H   0  0  0  0  0  0  0  0  0  0  0  0
   14.3291   -1.4186   24.1356 H   0  0  0  0  0  0  0  0  0  0  0  0
   14.3445   -3.0526   23.3896 H   0  0  0  0  0  0  0  0  0  0  0  0
  1  4  1  0  0  0  0
  1 15  2  0  0  0  0
  2  9  2  0  0  0  0
  2 10  1  0  0  0  0
  3  4  2  0  0  0  0
  3  6  1  0  0  0  0
  4 13  1  0  0  0  0
  5  8  1  0  0  0  0
  5 17  1  0  0  0  0
  5 23  1  0  0  0  0
  5 24  1  0  0  0  0
  6 15  1  0  0  0  0
  7 14  1  0  0  0  0
  7 20  1  0  0  0  0
  7 25  1  0  0  0  0
  7 26  1  0  0  0  0
  8  9  1  0  0  0  0
  8 21  2  0  0  0  0
  9 27  1  0  0  0  0
 10 11  2  0  0  0  0
 10 28  1  0  0  0  0
 11 21  1  0  0  0  0
 11 29  1  0  0  0  0
 12 15  1  0  0  0  0
 12 16  1  0  0  0  0
 12 22  1  0  0  0  0
 12 30  1  0  0  0  0
 13 14  1  0  0  0  0
 13 18  1  0  0  0  0
 13 31  1  0  0  0  0
 14 32  1  0  0  0  0
 14 33  1  0  0  0  0
 16 22  1  0  0  0  0
 16 34  1  0  0  0  0
 16 35  1  0  0  0  0
 17 18  1  0  0  0  0
 17 19  2  0  0  0  0
 18 20  1  0  0  0  0
 20 36  1  0  0  0  0
 20 37  1  0  0  0  0
 21 38  1  0  0  0  0
 22 39  1  0  0  0  0
 22 40  1  0  0  0  0
M  END
> <compound_name>
JAG-UCB-cedd89ab-4

> <provenance>
{"isomeric_smiles": "c1cc(cnc1)CC(=O)N2CCC[C@H]2c3nc(on3)C4CC4", "inchi": "InChI=1S/C16H18N4O2/c21-14(9-11-3-1-7-17-10-11)20-8-2-4-13(20)15-18-16(22-19-15)12-5-6-12/h1,3,7,10,12-13H,2,4-6,8-9H2/t13-/m0/s1", "inchi_key": "SHUFUJKRBBPZHJ-ZDUSSCGKSA-N", "fixed_inchi": "InChI=1/C16H18N4O2/c21-14(9-11-3-1-7-17-10-11)20-8-2-4-13(20)15-18-16(22-19-15)12-5-6-12/h1,3,7,10,12-13H,2,4-6,8-9H2/t13-/m0/s1", "fixed_inchikey": "SHUFUJKRBBPZHJ-ZDUSSCGKNA-N"}

> <data_format>
sdf

$$$$
