LIG(A-305)
  -OEChem-06042511393D

 29 31  0     1  0  0  0  0  0999 V2000
    6.3412    0.3657   20.1001 C   0  0  0  0  0  0  0  0  0  0  0  0
    5.6021    1.2268   17.6112 C   0  0  0  0  0  0  0  0  0  0  0  0
    8.9813   -0.6434   22.2910 N   0  0  0  0  0  0  0  0  0  0  0  0
    6.6621    0.4138   17.7121 N   0  0  0  0  0  0  0  0  0  0  0  0
    4.8582    1.6398   18.7012 C   0  0  0  0  0  0  0  0  0  0  0  0
   13.0344   -0.4975   23.4448 C   0  0  0  0  0  0  0  0  0  0  0  0
    8.9473    1.3987   21.2040 O   0  5  0  0  0  0  0  0  0  0  0  0
   12.6363   -1.2295   22.3418 C   0  0  0  0  0  0  0  0  0  0  0  0
    8.3683    0.4157   21.6240 C   0  0  0  0  0  0  0  0  0  0  0  0
   12.0695    0.1545   24.1988 C   0  0  0  0  0  0  0  0  0  0  0  0
    8.1153   -1.7373   22.4140 C   0  0  0  0  0  0  0  0  0  0  0  0
    6.9333   -1.3603   21.8801 N   0  0  0  0  0  0  0  0  0  0  0  0
    8.3833   -2.8184   22.9160 O   0  0  0  0  0  0  0  0  0  0  0  0
   11.3133   -1.3114   21.9578 C   0  0  0  0  0  0  0  0  0  0  0  0
    6.9073    0.0387   21.4751 C   0  0  2  0  0  0  0  0  0  0  0  0
   10.3564   -0.6374   22.7129 C   0  0  0  0  0  0  0  0  0  0  0  0
    7.0002   -0.0073   18.9371 C   0  0  0  0  0  0  0  0  0  0  0  0
    5.2373    1.1958   19.9572 C   0  0  0  0  0  0  0  0  0  0  0  0
   10.7314    0.0846   23.8429 C   0  0  0  0  0  0  0  0  0  0  0  0
   13.8302   -2.1065   21.4277 Cl  0  0  0  0  0  0  0  0  0  0  0  0
    5.3147    1.5767   16.6307 H   0  0  0  0  0  0  0  0  0  0  0  0
    4.0053    2.2905   18.5766 H   0  0  0  0  0  0  0  0  0  0  0  0
   14.0782   -0.4343   23.7148 H   0  0  0  0  0  0  0  0  0  0  0  0
   12.3630    0.7211   25.0701 H   0  0  0  0  0  0  0  0  0  0  0  0
    6.1548   -1.9789   21.7736 H   0  0  0  0  0  0  0  0  0  0  0  0
   11.0258   -1.8863   21.0899 H   0  0  0  0  0  0  0  0  0  0  0  0
    7.8399   -0.6806   19.0260 H   0  0  0  0  0  0  0  0  0  0  0  0
    4.6727    1.4959   20.8276 H   0  0  0  0  0  0  0  0  0  0  0  0
    9.9841    0.5873   24.4388 H   0  0  0  0  0  0  0  0  0  0  0  0
  1 15  1  0  0  0  0
  1 17  2  0  0  0  0
  1 18  1  0  0  0  0
  2  4  2  0  0  0  0
  2  5  1  0  0  0  0
  3  9  1  0  0  0  0
  3 11  1  0  0  0  0
  3 16  1  0  0  0  0
  4 17  1  0  0  0  0
  5 18  2  0  0  0  0
  6  8  2  0  0  0  0
  6 10  1  0  0  0  0
  7  9  1  0  0  0  0
  8 14  1  0  0  0  0
  8 20  1  0  0  0  0
  9 15  2  0  0  0  0
 10 19  2  0  0  0  0
 11 12  1  0  0  0  0
 11 13  2  0  0  0  0
 12 15  1  0  0  0  0
 14 16  2  0  0  0  0
 16 19  1  0  0  0  0
  2 21  1  0  0  0  0
  5 22  1  0  0  0  0
  6 23  1  0  0  0  0
 10 24  1  0  0  0  0
 12 25  1  0  0  0  0
 14 26  1  0  0  0  0
 17 27  1  0  0  0  0
 18 28  1  0  0  0  0
 19 29  1  0  0  0  0
M  CHG  1   7  -1
M  END
> <compound_name>
JAN-GHE-83b26c96-18

> <provenance>
{"isomeric_smiles": "c1cc(cc(c1)Cl)N2C(=O)[C@H](NC2=O)c3cccnc3", "inchi": "InChI=1S/C14H10ClN3O2/c15-10-4-1-5-11(7-10)18-13(19)12(17-14(18)20)9-3-2-6-16-8-9/h1-8,12H,(H,17,20)/t12-/m1/s1", "inchi_key": "GSEMEGPVJJVGNC-GFCCVEGCSA-N", "fixed_inchi": "InChI=1/C14H10ClN3O2/c15-10-4-1-5-11(7-10)18-13(19)12(17-14(18)20)9-3-2-6-16-8-9/h1-8,12H,(H,17,20)/t12-/m1/s1/f/h17H", "fixed_inchikey": "GSEMEGPVJJVGNC-YRIRCGKTNA-N"}

> <data_format>
sdf

$$$$
