LIG(A-305)
  -OEChem-06042511353D

 37 38  0     0  0  0  0  0  0999 V2000
   14.0683   -1.5831   21.0147 Cl  0  0  0  0  0  0  0  0  0  0  0  0
   13.0143   -0.6692   22.0568 C   0  0  0  0  0  0  0  0  0  0  0  0
   13.5594    0.2757   22.9049 C   0  0  0  0  0  0  0  0  0  0  0  0
   12.7284    0.9027   23.8200 C   0  0  0  0  0  0  0  0  0  0  0  0
   11.3764    0.5997   23.8590 C   0  0  0  0  0  0  0  0  0  0  0  0
   11.6663   -0.9611   22.0608 C   0  0  0  0  0  0  0  0  0  0  0  0
   10.8264   -0.3192   22.9679 C   0  0  0  0  0  0  0  0  0  0  0  0
    9.3143   -0.5941   22.9239 C   0  0  0  0  0  0  0  0  0  0  0  0
    9.0743   -2.1141   22.9658 C   0  0  0  0  0  0  0  0  0  0  0  0
    8.5674    0.0318   24.1160 C   0  0  0  0  0  0  0  0  0  0  0  0
    8.7283    0.0430   21.6460 C   0  0  0  0  0  0  0  0  0  0  0  0
    9.2094    1.0690   21.1890 O   0  0  0  0  0  0  0  0  0  0  0  0
    7.6473   -0.5649   21.1049 N   0  0  0  0  0  0  0  0  0  0  0  0
    6.9103   -0.0468   20.0150 C   0  0  0  0  0  0  0  0  0  0  0  0
    5.6983    0.6252   20.2560 C   0  0  0  0  0  0  0  0  0  0  0  0
    5.1454    0.8021   21.6461 C   0  0  0  0  0  0  0  0  0  0  0  0
    7.3923   -0.1047   18.7090 C   0  0  0  0  0  0  0  0  0  0  0  0
    6.7833    0.4754   17.6700 N   0  0  0  0  0  0  0  0  0  0  0  0
    5.6313    1.1064   17.9101 C   0  0  0  0  0  0  0  0  0  0  0  0
    5.0553    1.1943   19.1611 C   0  0  0  0  0  0  0  0  0  0  0  0
   14.6102    0.5205   22.8558 H   0  0  0  0  0  0  0  0  0  0  0  0
   13.1361    1.6306   24.5057 H   0  0  0  0  0  0  0  0  0  0  0  0
   10.7421    1.0815   24.5884 H   0  0  0  0  0  0  0  0  0  0  0  0
   11.2646   -1.6829   21.3651 H   0  0  0  0  0  0  0  0  0  0  0  0
    7.9935   -2.3162   22.9345 H   0  0  0  0  0  0  0  0  0  0  0  0
    9.5606   -2.5860   22.0993 H   0  0  0  0  0  0  0  0  0  0  0  0
    9.4976   -2.5266   23.8935 H   0  0  0  0  0  0  0  0  0  0  0  0
    7.4938   -0.1940   24.0361 H   0  0  0  0  0  0  0  0  0  0  0  0
    8.9607   -0.3852   25.0548 H   0  0  0  0  0  0  0  0  0  0  0  0
    8.7142    1.1219   24.1089 H   0  0  0  0  0  0  0  0  0  0  0  0
    7.3513   -1.4344   21.5004 H   0  0  0  0  0  0  0  0  0  0  0  0
    5.8642    1.3668   22.2581 H   0  0  0  0  0  0  0  0  0  0  0  0
    4.1948    1.3534   21.5950 H   0  0  0  0  0  0  0  0  0  0  0  0
    4.9729   -0.1848   22.1003 H   0  0  0  0  0  0  0  0  0  0  0  0
    8.3077   -0.6478   18.5261 H   0  0  0  0  0  0  0  0  0  0  0  0
    5.1225    1.5735   17.0798 H   0  0  0  0  0  0  0  0  0  0  0  0
    4.1108    1.7020   19.2896 H   0  0  0  0  0  0  0  0  0  0  0  0
  1  2  1  0  0  0  0
  2  3  2  0  0  0  0
  2  6  1  0  0  0  0
  3  4  1  0  0  0  0
  3 21  1  0  0  0  0
  4  5  2  0  0  0  0
  4 22  1  0  0  0  0
  5  7  1  0  0  0  0
  5 23  1  0  0  0  0
  6  7  2  0  0  0  0
  6 24  1  0  0  0  0
  7  8  1  0  0  0  0
  8  9  1  0  0  0  0
  8 10  1  0  0  0  0
  8 11  1  0  0  0  0
  9 25  1  0  0  0  0
  9 26  1  0  0  0  0
  9 27  1  0  0  0  0
 10 28  1  0  0  0  0
 10 29  1  0  0  0  0
 10 30  1  0  0  0  0
 11 12  2  0  0  0  0
 11 13  1  0  0  0  0
 13 14  1  0  0  0  0
 13 31  1  0  0  0  0
 14 15  2  0  0  0  0
 14 17  1  0  0  0  0
 15 16  1  0  0  0  0
 15 20  1  0  0  0  0
 16 32  1  0  0  0  0
 16 33  1  0  0  0  0
 16 34  1  0  0  0  0
 17 18  2  0  0  0  0
 17 35  1  0  0  0  0
 18 19  1  0  0  0  0
 19 20  2  0  0  0  0
 19 36  1  0  0  0  0
 20 37  1  0  0  0  0
M  END
> <compound_name>
JAN-GHE-83b26c96-22

> <provenance>
{"isomeric_smiles": "Cc1ccncc1NC(=O)C(C)(C)c2cccc(c2)Cl", "inchi": "InChI=1S/C16H17ClN2O/c1-11-7-8-18-10-14(11)19-15(20)16(2,3)12-5-4-6-13(17)9-12/h4-10H,1-3H3,(H,19,20)", "inchi_key": "QOWQEKIGADCHLL-UHFFFAOYSA-N", "fixed_inchi": "InChI=1/C16H17ClN2O/c1-11-7-8-18-10-14(11)19-15(20)16(2,3)12-5-4-6-13(17)9-12/h4-10H,1-3H3,(H,19,20)/f/h19H", "fixed_inchikey": "QOWQEKIGADCHLL-LILDFLRNNA-N"}

> <data_format>
sdf

$$$$
