LIG(A-305)
  -OEChem-06042511333D

 31 32  0     0  0  0  0  0  0999 V2000
   13.8415   -1.7985   21.2569 Cl  0  0  0  0  0  0  0  0  0  0  0  0
   12.6706   -1.0105   22.2800 C   0  0  0  0  0  0  0  0  0  0  0  0
   13.1018   -0.1176   23.2430 C   0  0  0  0  0  0  0  0  0  0  0  0
   12.1648    0.4304   24.1101 C   0  0  0  0  0  0  0  0  0  0  0  0
   10.8238    0.1066   23.9841 C   0  0  0  0  0  0  0  0  0  0  0  0
   11.3316   -1.3234   22.1280 C   0  0  0  0  0  0  0  0  0  0  0  0
   10.3897   -0.7473   22.9791 C   0  0  0  0  0  0  0  0  0  0  0  0
    8.9167   -0.9572   22.7251 C   0  0  0  0  0  0  0  0  0  0  0  0
    8.4567   -0.1661   21.5152 C   0  0  0  0  0  0  0  0  0  0  0  0
    9.0867    0.7969   21.0882 O   0  0  0  0  0  0  0  0  0  0  0  0
    7.2956   -0.5880   20.9792 N   0  0  0  0  0  0  0  0  0  0  0  0
    6.6306    0.0352   19.9043 C   0  0  0  0  0  0  0  0  0  0  0  0
    5.4907    0.8243   20.1424 C   0  0  0  0  0  0  0  0  0  0  0  0
    4.8598    0.9332   21.5054 C   0  0  0  0  0  0  0  0  0  0  0  0
    7.1446   -0.0378   18.6113 C   0  0  0  0  0  0  0  0  0  0  0  0
    6.6196    0.6273   17.5763 N   0  0  0  0  0  0  0  0  0  0  0  0
    5.5397    1.3814   17.8134 C   0  0  0  0  0  0  0  0  0  0  0  0
    4.9527    1.5084   19.0565 C   0  0  0  0  0  0  0  0  0  0  0  0
   14.1456    0.1486   23.3198 H   0  0  0  0  0  0  0  0  0  0  0  0
   12.4831    1.1117   24.8854 H   0  0  0  0  0  0  0  0  0  0  0  0
   10.1072    0.5235   24.6763 H   0  0  0  0  0  0  0  0  0  0  0  0
   11.0181   -2.0094   21.3551 H   0  0  0  0  0  0  0  0  0  0  0  0
    8.7308   -2.0268   22.5478 H   0  0  0  0  0  0  0  0  0  0  0  0
    8.3487   -0.6278   23.6077 H   0  0  0  0  0  0  0  0  0  0  0  0
    6.8738   -1.4044   21.3734 H   0  0  0  0  0  0  0  0  0  0  0  0
    5.5916    1.3430   22.2172 H   0  0  0  0  0  0  0  0  0  0  0  0
    3.9866    1.6001   21.4529 H   0  0  0  0  0  0  0  0  0  0  0  0
    4.5399   -0.0640   21.8420 H   0  0  0  0  0  0  0  0  0  0  0  0
    8.0086   -0.6615   18.4362 H   0  0  0  0  0  0  0  0  0  0  0  0
    5.1029    1.9208   16.9860 H   0  0  0  0  0  0  0  0  0  0  0  0
    4.0821    2.1342   19.1852 H   0  0  0  0  0  0  0  0  0  0  0  0
  1  2  1  0  0  0  0
  2  3  2  0  0  0  0
  2  6  1  0  0  0  0
  3  4  1  0  0  0  0
  3 19  1  0  0  0  0
  4  5  2  0  0  0  0
  4 20  1  0  0  0  0
  5  7  1  0  0  0  0
  5 21  1  0  0  0  0
  6  7  2  0  0  0  0
  6 22  1  0  0  0  0
  7  8  1  0  0  0  0
  8  9  1  0  0  0  0
  8 23  1  0  0  0  0
  8 24  1  0  0  0  0
  9 10  2  0  0  0  0
  9 11  1  0  0  0  0
 11 12  1  0  0  0  0
 11 25  1  0  0  0  0
 12 13  2  0  0  0  0
 12 15  1  0  0  0  0
 13 14  1  0  0  0  0
 13 18  1  0  0  0  0
 14 26  1  0  0  0  0
 14 27  1  0  0  0  0
 14 28  1  0  0  0  0
 15 16  2  0  0  0  0
 15 29  1  0  0  0  0
 16 17  1  0  0  0  0
 17 18  2  0  0  0  0
 17 30  1  0  0  0  0
 18 31  1  0  0  0  0
M  END
> <compound_name>
TRY-UNI-714a760b-6

> <provenance>
{"isomeric_smiles": "Cc1ccncc1NC(=O)Cc2cccc(c2)Cl", "inchi": "InChI=1S/C14H13ClN2O/c1-10-5-6-16-9-13(10)17-14(18)8-11-3-2-4-12(15)7-11/h2-7,9H,8H2,1H3,(H,17,18)", "inchi_key": "ZROFBWFSOGSOQG-UHFFFAOYSA-N", "fixed_inchi": "InChI=1/C14H13ClN2O/c1-10-5-6-16-9-13(10)17-14(18)8-11-3-2-4-12(15)7-11/h2-7,9H,8H2,1H3,(H,17,18)/f/h17H", "fixed_inchikey": "ZROFBWFSOGSOQG-HCKMINDGNA-N"}

> <data_format>
sdf

$$$$
