LIG(A-305)
  -OEChem-06042511343D

 34 36  0     0  0  0  0  0  0999 V2000
    8.9151    1.0231   20.8597 O   0  0  0  0  0  0  0  0  0  0  0  0
    8.7250   -0.1709   21.0897 C   0  0  0  0  0  0  0  0  0  0  0  0
    9.3439   -0.8500   22.0747 N   0  0  0  0  0  0  0  0  0  0  0  0
   10.1440   -0.2781   23.0816 C   0  0  0  0  0  0  0  0  0  0  0  0
    9.5471    0.1590   24.2596 C   0  0  0  0  0  0  0  0  0  0  0  0
   10.2762    0.9109   25.1636 C   0  0  0  0  0  0  0  0  0  0  0  0
   11.5973    1.2158   24.9096 C   0  0  0  0  0  0  0  0  0  0  0  0
   12.2012    0.7617   23.7555 C   0  0  0  0  0  0  0  0  0  0  0  0
   11.4841    0.0098   22.8406 C   0  0  0  0  0  0  0  0  0  0  0  0
    7.7139   -0.9888   20.3137 C   0  0  0  0  0  0  0  0  0  0  0  0
    6.7879   -0.1617   19.4537 C   0  0  0  0  0  0  0  0  0  0  0  0
    5.6680    0.5295   20.0118 C   0  0  0  0  0  0  0  0  0  0  0  0
    5.3381    0.4925   21.3928 C   0  0  0  0  0  0  0  0  0  0  0  0
    4.2682    1.1917   21.8778 C   0  0  0  0  0  0  0  0  0  0  0  0
    3.4742    1.9508   21.0308 C   0  0  0  0  0  0  0  0  0  0  0  0
    3.7532    2.0247   19.6988 C   0  0  0  0  0  0  0  0  0  0  0  0
    4.8511    1.3156   19.1518 C   0  0  0  0  0  0  0  0  0  0  0  0
    5.1941    1.3525   17.7838 C   0  0  0  0  0  0  0  0  0  0  0  0
    6.2270    0.7074   17.2637 N   0  0  0  0  0  0  0  0  0  0  0  0
    6.9859   -0.0177   18.0947 C   0  0  0  0  0  0  0  0  0  0  0  0
    9.2251   -1.8428   22.0920 H   0  0  0  0  0  0  0  0  0  0  0  0
    8.5167   -0.0880   24.4682 H   0  0  0  0  0  0  0  0  0  0  0  0
    9.8089    1.2608   26.0722 H   0  0  0  0  0  0  0  0  0  0  0  0
   12.1592    1.8104   25.6146 H   0  0  0  0  0  0  0  0  0  0  0  0
   13.2385    0.9939   23.5648 H   0  0  0  0  0  0  0  0  0  0  0  0
   11.9630   -0.3522   21.9428 H   0  0  0  0  0  0  0  0  0  0  0  0
    8.2598   -1.6871   19.6624 H   0  0  0  0  0  0  0  0  0  0  0  0
    7.1042   -1.5573   21.0314 H   0  0  0  0  0  0  0  0  0  0  0  0
    5.9406   -0.0959   22.0689 H   0  0  0  0  0  0  0  0  0  0  0  0
    4.0385    1.1525   22.9324 H   0  0  0  0  0  0  0  0  0  0  0  0
    2.6270    2.4883   21.4305 H   0  0  0  0  0  0  0  0  0  0  0  0
    3.1320    2.6292   19.0546 H   0  0  0  0  0  0  0  0  0  0  0  0
    4.5775    1.9420   17.1213 H   0  0  0  0  0  0  0  0  0  0  0  0
    7.8290   -0.5368   17.6633 H   0  0  0  0  0  0  0  0  0  0  0  0
  1  2  2  0  0  0  0
  2  3  1  0  0  0  0
  2 10  1  0  0  0  0
  3  4  1  0  0  0  0
  3 21  1  0  0  0  0
  4  5  2  0  0  0  0
  4  9  1  0  0  0  0
  5  6  1  0  0  0  0
  5 22  1  0  0  0  0
  6  7  2  0  0  0  0
  6 23  1  0  0  0  0
  7  8  1  0  0  0  0
  7 24  1  0  0  0  0
  8  9  2  0  0  0  0
  8 25  1  0  0  0  0
  9 26  1  0  0  0  0
 10 11  1  0  0  0  0
 10 27  1  0  0  0  0
 10 28  1  0  0  0  0
 11 12  2  0  0  0  0
 11 20  1  0  0  0  0
 12 13  1  0  0  0  0
 12 17  1  0  0  0  0
 13 14  2  0  0  0  0
 13 29  1  0  0  0  0
 14 15  1  0  0  0  0
 14 30  1  0  0  0  0
 15 16  2  0  0  0  0
 15 31  1  0  0  0  0
 16 17  1  0  0  0  0
 16 32  1  0  0  0  0
 17 18  2  0  0  0  0
 18 19  1  0  0  0  0
 18 33  1  0  0  0  0
 19 20  2  0  0  0  0
 20 34  1  0  0  0  0
M  END
> <compound_name>
DAR-DIA-23aa0b97-20

> <provenance>
{"isomeric_smiles": "c1ccc(cc1)NC(=O)Cc2cncc3c2cccc3", "inchi": "InChI=1S/C17H14N2O/c20-17(19-15-7-2-1-3-8-15)10-14-12-18-11-13-6-4-5-9-16(13)14/h1-9,11-12H,10H2,(H,19,20)", "inchi_key": "XBRJTBLYIAYTOZ-UHFFFAOYSA-N", "fixed_inchi": "InChI=1/C17H14N2O/c20-17(19-15-7-2-1-3-8-15)10-14-12-18-11-13-6-4-5-9-16(13)14/h1-9,11-12H,10H2,(H,19,20)/f/h19H", "fixed_inchikey": "XBRJTBLYIAYTOZ-LILDFLRNNA-N"}

> <data_format>
sdf

$$$$
