LIG(A-305)
  -OEChem-06042511353D

 31 32  0     0  0  0  0  0  0999 V2000
    8.7848   -2.2226   22.4783 F   0  0  0  0  0  0  0  0  0  0  0  0
   10.9025    0.2225   23.9396 C   0  0  0  0  0  0  0  0  0  0  0  0
    6.4809    0.6076   17.5544 N   0  0  0  0  0  0  0  0  0  0  0  0
   12.7567   -1.0043   22.3286 C   0  0  0  0  0  0  0  0  0  0  0  0
    5.5097    0.8444   20.1774 C   0  0  0  0  0  0  0  0  0  0  0  0
   13.1896   -0.0903   23.2687 C   0  0  0  0  0  0  0  0  0  0  0  0
    5.0016    1.0273   21.5853 C   0  0  0  0  0  0  0  0  0  0  0  0
   10.4756   -0.6705   22.9635 C   0  0  0  0  0  0  0  0  0  0  0  0
    4.8887    1.4874   19.1114 C   0  0  0  0  0  0  0  0  0  0  0  0
    8.4927   -0.0925   21.4945 C   0  0  0  0  0  0  0  0  0  0  0  0
    7.3548   -0.5596   20.9414 N   0  0  0  0  0  0  0  0  0  0  0  0
    9.0967    0.9015   21.1176 O   0  0  0  0  0  0  0  0  0  0  0  0
    6.6418    0.0635   19.8904 C   0  0  0  0  0  0  0  0  0  0  0  0
    9.0097   -0.8996   22.7064 C   0  0  0  0  0  0  0  0  0  0  0  0
    7.0789   -0.0244   18.5704 C   0  0  0  0  0  0  0  0  0  0  0  0
   12.2505    0.5116   24.0917 C   0  0  0  0  0  0  0  0  0  0  0  0
   11.4217   -1.3084   22.1705 C   0  0  0  0  0  0  0  0  0  0  0  0
    5.3998    1.3445   17.8374 C   0  0  0  0  0  0  0  0  0  0  0  0
    8.2546   -0.5817   23.7974 F   0  0  0  0  0  0  0  0  0  0  0  0
   13.9248   -1.8122   21.3237 Cl  0  0  0  0  0  0  0  0  0  0  0  0
   10.1778    0.6956   24.5856 H   0  0  0  0  0  0  0  0  0  0  0  0
   14.2383    0.1506   23.3609 H   0  0  0  0  0  0  0  0  0  0  0  0
    4.1337    1.7029   21.5776 H   0  0  0  0  0  0  0  0  0  0  0  0
    4.7031    0.0518   21.9969 H   0  0  0  0  0  0  0  0  0  0  0  0
    5.7977    1.4603   22.2089 H   0  0  0  0  0  0  0  0  0  0  0  0
    4.0118    2.0948   19.2799 H   0  0  0  0  0  0  0  0  0  0  0  0
    6.9852   -1.4153   21.3035 H   0  0  0  0  0  0  0  0  0  0  0  0
    7.9445   -0.6339   18.3566 H   0  0  0  0  0  0  0  0  0  0  0  0
   12.5693    1.2075   24.8535 H   0  0  0  0  0  0  0  0  0  0  0  0
   11.1132   -2.0371   21.4357 H   0  0  0  0  0  0  0  0  0  0  0  0
    4.9013    1.8540   17.0261 H   0  0  0  0  0  0  0  0  0  0  0  0
  1 14  1  0  0  0  0
  2  8  1  0  0  0  0
  2 16  2  0  0  0  0
  2 21  1  0  0  0  0
  3 15  1  0  0  0  0
  3 18  2  0  0  0  0
  4  6  2  0  0  0  0
  4 17  1  0  0  0  0
  4 20  1  0  0  0  0
  5  7  1  0  0  0  0
  5  9  2  0  0  0  0
  5 13  1  0  0  0  0
  6 16  1  0  0  0  0
  6 22  1  0  0  0  0
  7 23  1  0  0  0  0
  7 24  1  0  0  0  0
  7 25  1  0  0  0  0
  8 14  1  0  0  0  0
  8 17  2  0  0  0  0
  9 18  1  0  0  0  0
  9 26  1  0  0  0  0
 10 11  1  0  0  0  0
 10 12  2  0  0  0  0
 10 14  1  0  0  0  0
 11 13  1  0  0  0  0
 11 27  1  0  0  0  0
 13 15  2  0  0  0  0
 14 19  1  0  0  0  0
 15 28  1  0  0  0  0
 16 29  1  0  0  0  0
 17 30  1  0  0  0  0
 18 31  1  0  0  0  0
M  END
> <compound_name>
JAN-GHE-83b26c96-23

> <provenance>
{"isomeric_smiles": "Cc1ccncc1NC(=O)C(c2cccc(c2)Cl)(F)F", "inchi": "InChI=1S/C14H11ClF2N2O/c1-9-5-6-18-8-12(9)19-13(20)14(16,17)10-3-2-4-11(15)7-10/h2-8H,1H3,(H,19,20)", "inchi_key": "IIKFZOGWCHXLNB-UHFFFAOYSA-N", "fixed_inchi": "InChI=1/C14H11ClF2N2O/c1-9-5-6-18-8-12(9)19-13(20)14(16,17)10-3-2-4-11(15)7-10/h2-8H,1H3,(H,19,20)/f/h19H", "fixed_inchikey": "IIKFZOGWCHXLNB-LILDFLRNNA-N"}

> <data_format>
sdf

$$$$
