LIG(A-305)
  -OEChem-06042511343D

 37 38  0     0  0  0  0  0  0999 V2000
    8.2275    0.0945   25.1674 O   0  0  0  0  0  0  0  0  0  0  0  0
    8.5114   -0.9335   24.5563 C   0  0  0  0  0  0  0  0  0  0  0  0
    7.6803   -2.1935   24.6952 C   0  0  0  0  0  0  0  0  0  0  0  0
    8.4953   -3.4215   25.0351 C   0  0  0  0  0  0  0  0  0  0  0  0
    9.4002   -3.9575   24.1301 C   0  0  0  0  0  0  0  0  0  0  0  0
   10.1491   -5.0416   24.3700 N   0  0  0  0  0  0  0  0  0  0  0  0
    9.9991   -5.6347   25.5600 C   0  0  0  0  0  0  0  0  0  0  0  0
    9.1221   -5.1867   26.5270 C   0  0  0  0  0  0  0  0  0  0  0  0
    8.3632   -4.0676   26.2521 C   0  0  0  0  0  0  0  0  0  0  0  0
    9.5264   -1.0015   23.6983 N   0  0  0  0  0  0  0  0  0  0  0  0
   10.1145    0.1885   23.1263 C   0  0  0  0  0  0  0  0  0  0  0  0
    9.4905    0.6546   21.8224 C   0  0  0  0  0  0  0  0  0  0  0  0
    9.9186    1.6516   21.2584 O   0  0  0  0  0  0  0  0  0  0  0  0
    8.4475   -0.0793   21.3603 N   0  0  0  0  0  0  0  0  0  0  0  0
    7.5405    0.2469   20.3164 C   0  0  0  0  0  0  0  0  0  0  0  0
    6.3495    0.9309   20.6344 C   0  0  0  0  0  0  0  0  0  0  0  0
    6.0456    1.3878   22.0374 C   0  0  0  0  0  0  0  0  0  0  0  0
    7.7634   -0.1011   18.9803 C   0  0  0  0  0  0  0  0  0  0  0  0
    6.9055    0.1691   17.9874 N   0  0  0  0  0  0  0  0  0  0  0  0
    5.7775    0.8061   18.3074 C   0  0  0  0  0  0  0  0  0  0  0  0
    5.4635    1.2010   19.5914 C   0  0  0  0  0  0  0  0  0  0  0  0
    6.9399   -2.0356   25.4932 H   0  0  0  0  0  0  0  0  0  0  0  0
    7.1602   -2.3738   23.7429 H   0  0  0  0  0  0  0  0  0  0  0  0
    9.5073   -3.4701   23.1723 H   0  0  0  0  0  0  0  0  0  0  0  0
   10.5952   -6.5093   25.7749 H   0  0  0  0  0  0  0  0  0  0  0  0
    9.0323   -5.6984   27.4738 H   0  0  0  0  0  0  0  0  0  0  0  0
    7.6652   -3.6953   26.9874 H   0  0  0  0  0  0  0  0  0  0  0  0
    9.8908   -1.8971   23.4432 H   0  0  0  0  0  0  0  0  0  0  0  0
   10.0179    1.0023   23.8600 H   0  0  0  0  0  0  0  0  0  0  0  0
   11.1798   -0.0136   22.9409 H   0  0  0  0  0  0  0  0  0  0  0  0
    8.2982   -0.9596   21.8106 H   0  0  0  0  0  0  0  0  0  0  0  0
    6.8275    2.0843   22.3743 H   0  0  0  0  0  0  0  0  0  0  0  0
    5.0701    1.8959   22.0542 H   0  0  0  0  0  0  0  0  0  0  0  0
    6.0168    0.5167   22.7085 H   0  0  0  0  0  0  0  0  0  0  0  0
    8.6799   -0.6171   18.7349 H   0  0  0  0  0  0  0  0  0  0  0  0
    5.0725    1.0243   17.5189 H   0  0  0  0  0  0  0  0  0  0  0  0
    4.5356    1.7173   19.7883 H   0  0  0  0  0  0  0  0  0  0  0  0
  1  2  2  0  0  0  0
  2  3  1  0  0  0  0
  2 10  1  0  0  0  0
  3  4  1  0  0  0  0
  3 22  1  0  0  0  0
  3 23  1  0  0  0  0
  4  5  2  0  0  0  0
  4  9  1  0  0  0  0
  5  6  1  0  0  0  0
  5 24  1  0  0  0  0
  6  7  2  0  0  0  0
  7  8  1  0  0  0  0
  7 25  1  0  0  0  0
  8  9  2  0  0  0  0
  8 26  1  0  0  0  0
  9 27  1  0  0  0  0
 10 11  1  0  0  0  0
 10 28  1  0  0  0  0
 11 12  1  0  0  0  0
 11 29  1  0  0  0  0
 11 30  1  0  0  0  0
 12 13  2  0  0  0  0
 12 14  1  0  0  0  0
 14 15  1  0  0  0  0
 14 31  1  0  0  0  0
 15 16  2  0  0  0  0
 15 18  1  0  0  0  0
 16 17  1  0  0  0  0
 16 21  1  0  0  0  0
 17 32  1  0  0  0  0
 17 33  1  0  0  0  0
 17 34  1  0  0  0  0
 18 19  2  0  0  0  0
 18 35  1  0  0  0  0
 19 20  1  0  0  0  0
 20 21  2  0  0  0  0
 20 36  1  0  0  0  0
 21 37  1  0  0  0  0
M  END
> <compound_name>
GAB-REV-70cc3ca5-13

> <provenance>
{"isomeric_smiles": "Cc1ccncc1NC(=O)CNC(=O)Cc2cccnc2", "inchi": "InChI=1S/C15H16N4O2/c1-11-4-6-17-9-13(11)19-15(21)10-18-14(20)7-12-3-2-5-16-8-12/h2-6,8-9H,7,10H2,1H3,(H,18,20)(H,19,21)", "inchi_key": "YFRDXIQIPSQACH-UHFFFAOYSA-N", "fixed_inchi": "InChI=1/C15H16N4O2/c1-11-4-6-17-9-13(11)19-15(21)10-18-14(20)7-12-3-2-5-16-8-12/h2-6,8-9H,7,10H2,1H3,(H,18,20)(H,19,21)/f/h18-19H", "fixed_inchikey": "YFRDXIQIPSQACH-VEWCPZSHNA-N"}

> <data_format>
sdf

$$$$
