LIG(A-305)
  -OEChem-06042511333D

 30 31  0     0  0  0  0  0  0999 V2000
   14.0342   -1.6564   21.4803 Cl  0  0  0  0  0  0  0  0  0  0  0  0
   12.7492   -0.8864   22.3673 C   0  0  0  0  0  0  0  0  0  0  0  0
   13.0581    0.0966   23.2883 C   0  0  0  0  0  0  0  0  0  0  0  0
   12.0251    0.7096   23.9833 C   0  0  0  0  0  0  0  0  0  0  0  0
   10.7071    0.3575   23.7373 C   0  0  0  0  0  0  0  0  0  0  0  0
   11.4482   -1.2665   22.1144 C   0  0  0  0  0  0  0  0  0  0  0  0
   10.4182   -0.6186   22.7874 C   0  0  0  0  0  0  0  0  0  0  0  0
    9.1112   -0.8306   22.3024 N   0  0  0  0  0  0  0  0  0  0  0  0
    8.5751   -0.1017   21.2784 C   0  0  0  0  0  0  0  0  0  0  0  0
    9.1190    0.8943   20.8214 O   0  0  0  0  0  0  0  0  0  0  0  0
    7.3861   -0.5868   20.8154 N   0  0  0  0  0  0  0  0  0  0  0  0
    6.6900    0.0422   19.7604 C   0  0  0  0  0  0  0  0  0  0  0  0
    5.5180    0.7731   20.0304 C   0  0  0  0  0  0  0  0  0  0  0  0
    5.0220    0.9981   21.4364 C   0  0  0  0  0  0  0  0  0  0  0  0
    7.1580   -0.0198   18.4474 C   0  0  0  0  0  0  0  0  0  0  0  0
    6.5410    0.5751   17.4204 N   0  0  0  0  0  0  0  0  0  0  0  0
    5.4139    1.2500   17.6854 C   0  0  0  0  0  0  0  0  0  0  0  0
    4.8749    1.3680   18.9514 C   0  0  0  0  0  0  0  0  0  0  0  0
   14.0847    0.3826   23.4639 H   0  0  0  0  0  0  0  0  0  0  0  0
   12.2496    1.4660   24.7208 H   0  0  0  0  0  0  0  0  0  0  0  0
    9.9072    0.8385   24.2806 H   0  0  0  0  0  0  0  0  0  0  0  0
   11.2330   -2.0531   21.4064 H   0  0  0  0  0  0  0  0  0  0  0  0
    8.5531   -1.5445   22.7256 H   0  0  0  0  0  0  0  0  0  0  0  0
    6.9985   -1.4081   21.2340 H   0  0  0  0  0  0  0  0  0  0  0  0
    5.7865    1.5394   22.0133 H   0  0  0  0  0  0  0  0  0  0  0  0
    4.0961    1.5912   21.4079 H   0  0  0  0  0  0  0  0  0  0  0  0
    4.8214    0.0277   21.9140 H   0  0  0  0  0  0  0  0  0  0  0  0
    8.0629   -0.5755   18.2506 H   0  0  0  0  0  0  0  0  0  0  0  0
    4.8994    1.7275   16.8646 H   0  0  0  0  0  0  0  0  0  0  0  0
    3.9587    1.9196   19.1023 H   0  0  0  0  0  0  0  0  0  0  0  0
  1  2  1  0  0  0  0
  2  3  2  0  0  0  0
  2  6  1  0  0  0  0
  3  4  1  0  0  0  0
  3 19  1  0  0  0  0
  4  5  2  0  0  0  0
  4 20  1  0  0  0  0
  5  7  1  0  0  0  0
  5 21  1  0  0  0  0
  6  7  2  0  0  0  0
  6 22  1  0  0  0  0
  7  8  1  0  0  0  0
  8  9  1  0  0  0  0
  8 23  1  0  0  0  0
  9 10  2  0  0  0  0
  9 11  1  0  0  0  0
 11 12  1  0  0  0  0
 11 24  1  0  0  0  0
 12 13  2  0  0  0  0
 12 15  1  0  0  0  0
 13 14  1  0  0  0  0
 13 18  1  0  0  0  0
 14 25  1  0  0  0  0
 14 26  1  0  0  0  0
 14 27  1  0  0  0  0
 15 16  2  0  0  0  0
 15 28  1  0  0  0  0
 16 17  1  0  0  0  0
 17 18  2  0  0  0  0
 17 29  1  0  0  0  0
 18 30  1  0  0  0  0
M  END
> <compound_name>
TRY-UNI-714a760b-12

> <provenance>
{"isomeric_smiles": "Cc1ccncc1NC(=O)Nc2cccc(c2)Cl", "inchi": "InChI=1S/C13H12ClN3O/c1-9-5-6-15-8-12(9)17-13(18)16-11-4-2-3-10(14)7-11/h2-8H,1H3,(H2,16,17,18)", "inchi_key": "SXMQMOJIKMECGG-UHFFFAOYSA-N", "fixed_inchi": "InChI=1/C13H12ClN3O/c1-9-5-6-15-8-12(9)17-13(18)16-11-4-2-3-10(14)7-11/h2-8H,1H3,(H2,16,17,18)/f/h16-17H", "fixed_inchikey": "SXMQMOJIKMECGG-XQMQJMAZNA-N"}

> <data_format>
sdf

$$$$
