LIG(A-306)
  -OEChem-06042511423D

 54 58  0     1  0  0  0  0  0999 V2000
    8.3014    6.7913   22.4973 N   0  0  0  0  0  0  0  0  0  0  0  0
    7.7114    5.8192   22.5685 C   0  0  0  0  0  0  0  0  0  0  0  0
    7.0047    4.5373   22.6492 C   0  0  0  0  0  0  0  0  0  0  0  0
    5.7952    4.3773   21.7516 C   0  0  0  0  0  0  0  0  0  0  0  0
    5.5979    4.5664   23.2086 C   0  0  0  0  0  0  0  0  0  0  0  0
    7.9724    3.3869   22.9112 C   0  0  0  0  0  0  0  0  0  0  0  0
    8.2544    2.8090   24.5753 S   0  0  0  0  0  0  0  0  0  0  0  0
    7.0205    2.3238   25.1081 O   0  0  0  0  0  0  0  0  0  0  0  0
    8.9647    3.8269   25.2823 O   0  0  0  0  0  0  0  0  0  0  0  0
    9.2527    1.5315   24.4397 N   0  0  3  0  0  0  0  0  0  0  0  0
    8.8188    0.1302   24.2908 C   0  0  0  0  0  0  0  0  0  0  0  0
   10.6792    1.7081   24.7354 C   0  0  0  0  0  0  0  0  0  0  0  0
   11.5133    0.8881   23.7791 C   0  0  0  0  0  0  0  0  0  0  0  0
   10.9859   -0.2002   23.0617 C   0  0  0  0  0  0  0  0  0  0  0  0
   11.8391   -0.9770   22.2737 C   0  0  0  0  0  0  0  0  0  0  0  0
   13.1758   -0.6343   22.1702 C   0  0  0  0  0  0  0  0  0  0  0  0
   14.2226   -1.5904   21.1592 Cl  0  0  0  0  0  0  0  0  0  0  0  0
   13.6932    0.4553   22.8276 C   0  0  0  0  0  0  0  0  0  0  0  0
   12.8629    1.2050   23.6375 C   0  0  0  0  0  0  0  0  0  0  0  0
    9.4883   -0.4620   23.0487 C   0  0  2  0  0  0  0  0  0  0  0  0
    8.8644    0.1656   21.7999 C   0  0  0  0  0  0  0  0  0  0  0  0
    9.3524    1.1553   21.2588 O   0  0  0  0  0  0  0  0  0  0  0  0
    7.7271   -0.4379   21.3641 N   0  0  0  0  0  0  0  0  0  0  0  0
    6.9867   -0.0445   20.2131 C   0  0  0  0  0  0  0  0  0  0  0  0
    7.5090   -0.2632   18.9389 C   0  0  0  0  0  0  0  0  0  0  0  0
    6.9458    0.1926   17.8103 N   0  0  0  0  0  0  0  0  0  0  0  0
    5.8132    0.8965   17.9160 C   0  0  0  0  0  0  0  0  0  0  0  0
    5.7812    0.6696   20.2939 C   0  0  0  0  0  0  0  0  0  0  0  0
    4.9721    1.0220   21.3399 N   0  0  0  0  0  0  0  0  0  0  0  0
    5.1138    0.7526   22.7645 C   0  0  0  0  0  0  0  0  0  0  0  0
    5.1650    1.1748   19.1256 C   0  0  0  0  0  0  0  0  0  0  0  0
    3.9985    1.8248   19.6010 C   0  0  0  0  0  0  0  0  0  0  0  0
    3.8845    1.7265   20.9086 N   0  0  0  0  0  0  0  0  0  0  0  0
    5.5214    5.1812   21.0524 H   0  0  0  0  0  0  0  0  0  0  0  0
    5.5794    3.4018   21.2913 H   0  0  0  0  0  0  0  0  0  0  0  0
    5.1779    5.5101   23.5868 H   0  0  0  0  0  0  0  0  0  0  0  0
    5.2360    3.7307   23.8256 H   0  0  0  0  0  0  0  0  0  0  0  0
    7.6023    2.5255   22.3360 H   0  0  0  0  0  0  0  0  0  0  0  0
    8.9498    3.6998   22.5153 H   0  0  0  0  0  0  0  0  0  0  0  0
    9.1145   -0.4453   25.1803 H   0  0  0  0  0  0  0  0  0  0  0  0
    7.7255    0.0915   24.1758 H   0  0  0  0  0  0  0  0  0  0  0  0
   10.9438    2.7706   24.6299 H   0  0  0  0  0  0  0  0  0  0  0  0
   10.8803    1.3808   25.7661 H   0  0  0  0  0  0  0  0  0  0  0  0
   11.4575   -1.8400   21.7483 H   0  0  0  0  0  0  0  0  0  0  0  0
   14.7336    0.7217   22.7127 H   0  0  0  0  0  0  0  0  0  0  0  0
   13.2671    2.0526   24.1710 H   0  0  0  0  0  0  0  0  0  0  0  0
    9.3123   -1.5477   23.0300 H   0  0  0  0  0  0  0  0  0  0  0  0
    7.3848   -1.2159   21.8909 H   0  0  0  0  0  0  0  0  0  0  0  0
    8.4221   -0.8340   18.8558 H   0  0  0  0  0  0  0  0  0  0  0  0
    5.3690    1.2756   17.0075 H   0  0  0  0  0  0  0  0  0  0  0  0
    6.0523    1.1945   23.1302 H   0  0  0  0  0  0  0  0  0  0  0  0
    4.2649    1.1939   23.3072 H   0  0  0  0  0  0  0  0  0  0  0  0
    5.1308   -0.3344   22.9320 H   0  0  0  0  0  0  0  0  0  0  0  0
    3.2899    2.3380   18.9678 H   0  0  0  0  0  0  0  0  0  0  0  0
  1  2  3  0  0  0  0
  2  3  1  0  0  0  0
  3  4  1  0  0  0  0
  3  5  1  0  0  0  0
  3  6  1  0  0  0  0
  4  5  1  0  0  0  0
  4 34  1  0  0  0  0
  4 35  1  0  0  0  0
  5 36  1  0  0  0  0
  5 37  1  0  0  0  0
  6  7  1  0  0  0  0
  6 38  1  0  0  0  0
  6 39  1  0  0  0  0
  7  8  2  0  0  0  0
  7  9  2  0  0  0  0
  7 10  1  0  0  0  0
 10 11  1  0  0  0  0
 10 12  1  0  0  0  0
 11 20  1  0  0  0  0
 11 40  1  0  0  0  0
 11 41  1  0  0  0  0
 12 13  1  0  0  0  0
 12 42  1  0  0  0  0
 12 43  1  0  0  0  0
 13 14  2  0  0  0  0
 13 19  1  0  0  0  0
 14 15  1  0  0  0  0
 14 20  1  0  0  0  0
 15 16  2  0  0  0  0
 15 44  1  0  0  0  0
 16 17  1  0  0  0  0
 16 18  1  0  0  0  0
 18 19  2  0  0  0  0
 18 45  1  0  0  0  0
 19 46  1  0  0  0  0
 20 21  1  0  0  0  0
 20 47  1  0  0  0  0
 21 22  2  0  0  0  0
 21 23  1  0  0  0  0
 23 24  1  0  0  0  0
 23 48  1  0  0  0  0
 24 25  2  0  0  0  0
 24 28  1  0  0  0  0
 25 26  1  0  0  0  0
 25 49  1  0  0  0  0
 26 27  2  0  0  0  0
 27 31  1  0  0  0  0
 27 50  1  0  0  0  0
 28 29  1  0  0  0  0
 28 31  2  0  0  0  0
 29 30  1  0  0  0  0
 29 33  1  0  0  0  0
 30 51  1  0  0  0  0
 30 52  1  0  0  0  0
 30 53  1  0  0  0  0
 31 32  1  0  0  0  0
 32 33  2  0  0  0  0
 32 54  1  0  0  0  0
M  END
> <compound_name>
MAT-POS-bfd29aac-1

> <provenance>
{"isomeric_smiles": "Cn1c2c(cncc2NC(=O)[C@@H]3CN(Cc4c3cc(cc4)Cl)S(=O)(=O)CC5(CC5)C#N)cn1", "inchi": "InChI=1S/C22H21ClN6O3S/c1-28-20-15(8-26-28)7-25-9-19(20)27-21(30)18-11-29(10-14-2-3-16(23)6-17(14)18)33(31,32)13-22(12-24)4-5-22/h2-3,6-9,18H,4-5,10-11,13H2,1H3,(H,27,30)/t18-/m1/s1", "inchi_key": "ZFCGSGJZJHDJGS-GOSISDBHSA-N", "fixed_inchi": "InChI=1/C22H21ClN6O3S/c1-28-20-15(8-26-28)7-25-9-19(20)27-21(30)18-11-29(10-14-2-3-16(23)6-17(14)18)33(31,32)13-22(12-24)4-5-22/h2-3,6-9,18H,4-5,10-11,13H2,1H3,(H,27,30)/t18-/m1/s1/f/h27H", "fixed_inchikey": "ZFCGSGJZJHDJGS-YESIIZMGNA-N"}

> <data_format>
sdf

$$$$
