LIG(A-307)
  -OEChem-06042511433D

 62 67  0     1  0  0  0  0  0999 V2000
    9.4473    1.4752   21.3318 O   0  0  0  0  0  0  0  0  0  0  0  0
    9.0621    0.3939   21.7506 C   0  0  0  0  0  0  0  0  0  0  0  0
    8.0084   -0.3184   21.2574 N   0  0  0  0  0  0  0  0  0  0  0  0
    7.1350    0.1127   20.2058 C   0  0  0  0  0  0  0  0  0  0  0  0
    5.9467    0.8631   20.4509 C   0  0  0  0  0  0  0  0  0  0  0  0
    5.4879    1.2307   21.7439 C   0  0  0  0  0  0  0  0  0  0  0  0
    4.3616    1.9903   21.9020 C   0  0  0  0  0  0  0  0  0  0  0  0
    3.6472    2.4353   20.7985 C   0  0  0  0  0  0  0  0  0  0  0  0
    4.0420    2.1037   19.5327 C   0  0  0  0  0  0  0  0  0  0  0  0
    5.1882    1.2963   19.3233 C   0  0  0  0  0  0  0  0  0  0  0  0
    5.6450    0.9177   18.0353 C   0  0  0  0  0  0  0  0  0  0  0  0
    6.7434    0.2064   17.8144 N   0  0  0  0  0  0  0  0  0  0  0  0
    7.4609   -0.1664   18.8823 C   0  0  0  0  0  0  0  0  0  0  0  0
    7.8398   -1.6223   21.9230 C   0  0  0  0  0  0  0  0  0  0  0  0
    9.1776   -1.8327   22.6286 C   0  0  0  0  0  0  0  0  0  0  0  0
    9.6618   -0.3952   22.9245 C   0  0  1  0  0  0  0  0  0  0  0  0
   11.1901   -0.2528   22.9857 C   0  0  0  0  0  0  0  0  0  0  0  0
   11.7693    0.6233   23.9189 C   0  0  0  0  0  0  0  0  0  0  0  0
   13.1458    0.8516   23.8726 C   0  0  0  0  0  0  0  0  0  0  0  0
   13.9412    0.2316   22.9253 C   0  0  0  0  0  0  0  0  0  0  0  0
   12.0024   -0.9210   22.0672 C   0  0  0  0  0  0  0  0  0  0  0  0
   13.3599   -0.6548   22.0420 C   0  0  0  0  0  0  0  0  0  0  0  0
   14.3509   -1.4270   20.8299 Cl  0  0  0  0  0  0  0  0  0  0  0  0
    8.9674    0.1610   24.1945 C   0  0  0  0  0  0  0  0  0  0  0  0
    9.5203    1.4722   24.5279 N   0  3  2  0  0  0  0  0  0  0  0  0
   10.9262    1.3431   24.9498 C   0  0  0  0  0  0  0  0  0  0  0  0
    8.7003    2.2634   25.4420 C   0  0  0  0  0  0  0  0  0  0  0  0
    7.6569    3.1112   24.7306 C   0  0  0  0  0  0  0  0  0  0  0  0
    6.5385    3.2922   25.2158 O   0  0  0  0  0  0  0  0  0  0  0  0
    8.0366    3.6122   23.5559 N   0  0  0  0  0  0  0  0  0  0  0  0
    7.1711    4.4402   22.7223 C   0  0  0  0  0  0  0  0  0  0  0  0
    7.1574    5.8890   23.1755 C   0  0  0  0  0  0  0  0  0  0  0  0
    6.8593    6.9368   22.1518 C   0  0  0  0  0  0  0  0  0  0  0  0
    8.2442    6.7951   22.6976 C   0  0  0  0  0  0  0  0  0  0  0  0
    6.0367    0.9054   22.6153 H   0  0  0  0  0  0  0  0  0  0  0  0
    4.0248    2.2464   22.8956 H   0  0  0  0  0  0  0  0  0  0  0  0
    2.7705    3.0497   20.9413 H   0  0  0  0  0  0  0  0  0  0  0  0
    3.4759    2.4600   18.6847 H   0  0  0  0  0  0  0  0  0  0  0  0
    5.0624    1.2277   17.1804 H   0  0  0  0  0  0  0  0  0  0  0  0
    8.3651   -0.7289   18.7014 H   0  0  0  0  0  0  0  0  0  0  0  0
    7.0129   -1.5908   22.6478 H   0  0  0  0  0  0  0  0  0  0  0  0
    7.6526   -2.4187   21.1877 H   0  0  0  0  0  0  0  0  0  0  0  0
    9.0451   -2.4023   23.5603 H   0  0  0  0  0  0  0  0  0  0  0  0
    9.8879   -2.3597   21.9746 H   0  0  0  0  0  0  0  0  0  0  0  0
   13.5972    1.5231   24.5879 H   0  0  0  0  0  0  0  0  0  0  0  0
   15.0002    0.4382   22.8779 H   0  0  0  0  0  0  0  0  0  0  0  0
   11.5749   -1.6388   21.3827 H   0  0  0  0  0  0  0  0  0  0  0  0
    7.8876    0.2569   24.0078 H   0  0  0  0  0  0  0  0  0  0  0  0
    9.1344   -0.5298   25.0342 H   0  0  0  0  0  0  0  0  0  0  0  0
    9.5423    1.9844   23.6693 H   0  0  0  0  0  0  0  0  0  0  0  0
   11.3423    2.3490   25.1078 H   0  0  0  0  0  0  0  0  0  0  0  0
   10.9624    0.7788   25.8934 H   0  0  0  0  0  0  0  0  0  0  0  0
    8.1838    1.5782   26.1303 H   0  0  0  0  0  0  0  0  0  0  0  0
    9.3608    2.9305   26.0156 H   0  0  0  0  0  0  0  0  0  0  0  0
    8.9602    3.4109   23.2294 H   0  0  0  0  0  0  0  0  0  0  0  0
    7.5317    4.3968   21.6839 H   0  0  0  0  0  0  0  0  0  0  0  0
    6.1463    4.0436   22.7715 H   0  0  0  0  0  0  0  0  0  0  0  0
    6.7761    6.0734   24.1906 H   0  0  0  0  0  0  0  0  0  0  0  0
    6.6450    6.6457   21.1129 H   0  0  0  0  0  0  0  0  0  0  0  0
    6.2486    7.8112   22.4210 H   0  0  0  0  0  0  0  0  0  0  0  0
    9.0488    6.4001   22.0601 H   0  0  0  0  0  0  0  0  0  0  0  0
    8.6525    7.5655   23.3682 H   0  0  0  0  0  0  0  0  0  0  0  0
  1  2  2  0  0  0  0
  2  3  1  0  0  0  0
  2 16  1  0  0  0  0
  3  4  1  0  0  0  0
  3 14  1  0  0  0  0
  4  5  2  0  0  0  0
  4 13  1  0  0  0  0
  5  6  1  0  0  0  0
  5 10  1  0  0  0  0
  6  7  2  0  0  0  0
  6 35  1  0  0  0  0
  7  8  1  0  0  0  0
  7 36  1  0  0  0  0
  8  9  2  0  0  0  0
  8 37  1  0  0  0  0
  9 10  1  0  0  0  0
  9 38  1  0  0  0  0
 10 11  2  0  0  0  0
 11 12  1  0  0  0  0
 11 39  1  0  0  0  0
 12 13  2  0  0  0  0
 13 40  1  0  0  0  0
 14 15  1  0  0  0  0
 14 41  1  0  0  0  0
 14 42  1  0  0  0  0
 15 16  1  0  0  0  0
 15 43  1  0  0  0  0
 15 44  1  0  0  0  0
 16 17  1  0  0  0  0
 16 24  1  0  0  0  0
 17 18  2  0  0  0  0
 17 21  1  0  0  0  0
 18 19  1  0  0  0  0
 18 26  1  0  0  0  0
 19 20  2  0  0  0  0
 19 45  1  0  0  0  0
 20 22  1  0  0  0  0
 20 46  1  0  0  0  0
 21 22  2  0  0  0  0
 21 47  1  0  0  0  0
 22 23  1  0  0  0  0
 24 25  1  0  0  0  0
 24 48  1  0  0  0  0
 24 49  1  0  0  0  0
 25 26  1  0  0  0  0
 25 27  1  0  0  0  0
 25 50  1  0  0  0  0
 26 51  1  0  0  0  0
 26 52  1  0  0  0  0
 27 28  1  0  0  0  0
 27 53  1  0  0  0  0
 27 54  1  0  0  0  0
 28 29  2  0  0  0  0
 28 30  1  0  0  0  0
 30 31  1  0  0  0  0
 30 55  1  0  0  0  0
 31 32  1  0  0  0  0
 31 56  1  0  0  0  0
 31 57  1  0  0  0  0
 32 33  1  0  0  0  0
 32 34  1  0  0  0  0
 32 58  1  0  0  0  0
 33 34  1  0  0  0  0
 33 59  1  0  0  0  0
 33 60  1  0  0  0  0
 34 61  1  0  0  0  0
 34 62  1  0  0  0  0
M  CHG  1  25   1
M  END
> <compound_name>
ALP-POS-ecbed2ba-12

> <provenance>
{"isomeric_smiles": "c1ccc2c(c1)cncc2N3CC[C@@]4(C3=O)C[N@H+](Cc5c4cc(cc5)Cl)CC(=O)NCC6CC6", "inchi": "InChI=1S/C27H27ClN4O2/c28-21-8-7-20-15-31(16-25(33)30-12-18-5-6-18)17-27(23(20)11-21)9-10-32(26(27)34)24-14-29-13-19-3-1-2-4-22(19)24/h1-4,7-8,11,13-14,18H,5-6,9-10,12,15-17H2,(H,30,33)/p+1/t27-/m1/s1", "inchi_key": "RIGXBQKBYSFBJB-HHHXNRCGSA-O", "fixed_inchi": "InChI=1/C27H27ClN4O2/c28-21-8-7-20-15-31(16-25(33)30-12-18-5-6-18)17-27(23(20)11-21)9-10-32(26(27)34)24-14-29-13-19-3-1-2-4-22(19)24/h1-4,7-8,11,13-14,18H,5-6,9-10,12,15-17H2,(H,30,33)/p+1/t27-/m1/s1/fC27H28ClN4O2/h30-31H/q+1", "fixed_inchikey": "RIGXBQKBYSFBJB-XVBAWQHYNA-O"}

> <data_format>
sdf

$$$$
