LIG(A-305)
  -OEChem-06042511373D

 28 28  0     1  0  0  0  0  0999 V2000
    9.7344    0.9633   21.2347 O   0  0  0  0  0  0  0  0  0  0  0  0
    9.3383   -0.1837   21.4337 C   0  0  0  0  0  0  0  0  0  0  0  0
   10.1804   -1.1658   22.2456 C   0  0  1  0  0  0  0  0  0  0  0  0
   11.5174   -0.6598   22.4325 O   0  0  0  0  0  0  0  0  0  0  0  0
   12.4663   -1.1418   21.5814 C   0  0  0  0  0  0  0  0  0  0  0  0
   13.0694   -2.1689   22.1873 F   0  0  0  0  0  0  0  0  0  0  0  0
   13.4383   -0.2159   21.4913 F   0  0  0  0  0  0  0  0  0  0  0  0
    9.6235   -1.3838   23.6367 C   0  0  0  0  0  0  0  0  0  0  0  0
    8.1803   -0.6897   20.9378 N   0  0  0  0  0  0  0  0  0  0  0  0
    7.2862   -0.0816   20.0209 C   0  0  0  0  0  0  0  0  0  0  0  0
    6.1083    0.5324   20.4871 C   0  0  0  0  0  0  0  0  0  0  0  0
    5.8474    0.7484   21.9561 C   0  0  0  0  0  0  0  0  0  0  0  0
    5.2212    1.0215   19.5342 C   0  0  0  0  0  0  0  0  0  0  0  0
    5.5371    0.9265   18.1931 C   0  0  0  0  0  0  0  0  0  0  0  0
    6.6700    0.3845   17.7370 N   0  0  0  0  0  0  0  0  0  0  0  0
    7.5191   -0.1146   18.6449 C   0  0  0  0  0  0  0  0  0  0  0  0
   10.2124   -2.1296   21.7164 H   0  0  0  0  0  0  0  0  0  0  0  0
   12.0483   -1.4124   20.6005 H   0  0  0  0  0  0  0  0  0  0  0  0
   10.2619   -2.0960   24.1803 H   0  0  0  0  0  0  0  0  0  0  0  0
    9.6008   -0.4257   24.1767 H   0  0  0  0  0  0  0  0  0  0  0  0
    8.6031   -1.7880   23.5637 H   0  0  0  0  0  0  0  0  0  0  0  0
    7.9271   -1.6025   21.2583 H   0  0  0  0  0  0  0  0  0  0  0  0
    6.6392    1.3834   22.3801 H   0  0  0  0  0  0  0  0  0  0  0  0
    4.8728    1.2414   22.0867 H   0  0  0  0  0  0  0  0  0  0  0  0
    5.8396   -0.2223   22.4736 H   0  0  0  0  0  0  0  0  0  0  0  0
    4.2896    1.4734   19.8415 H   0  0  0  0  0  0  0  0  0  0  0  0
    4.8296    1.3115   17.4736 H   0  0  0  0  0  0  0  0  0  0  0  0
    8.4342   -0.5674   18.2930 H   0  0  0  0  0  0  0  0  0  0  0  0
  1  2  2  0  0  0  0
  2  3  1  0  0  0  0
  2  9  1  0  0  0  0
  3  4  1  0  0  0  0
  3  8  1  0  0  0  0
  3 17  1  0  0  0  0
  4  5  1  0  0  0  0
  5  6  1  0  0  0  0
  5  7  1  0  0  0  0
  5 18  1  0  0  0  0
  8 19  1  0  0  0  0
  8 20  1  0  0  0  0
  8 21  1  0  0  0  0
  9 10  1  0  0  0  0
  9 22  1  0  0  0  0
 10 11  2  0  0  0  0
 10 16  1  0  0  0  0
 11 12  1  0  0  0  0
 11 13  1  0  0  0  0
 12 23  1  0  0  0  0
 12 24  1  0  0  0  0
 12 25  1  0  0  0  0
 13 14  2  0  0  0  0
 13 26  1  0  0  0  0
 14 15  1  0  0  0  0
 14 27  1  0  0  0  0
 15 16  2  0  0  0  0
 16 28  1  0  0  0  0
M  END
> <compound_name>
MAT-POS-590ac91e-17

> <provenance>
{"isomeric_smiles": "Cc1ccncc1NC(=O)[C@H](C)OC(F)F", "inchi": "InChI=1S/C10H12F2N2O2/c1-6-3-4-13-5-8(6)14-9(15)7(2)16-10(11)12/h3-5,7,10H,1-2H3,(H,14,15)/t7-/m0/s1", "inchi_key": "XVSORZZOZIKMAO-ZETCQYMHSA-N", "fixed_inchi": "InChI=1/C10H12F2N2O2/c1-6-3-4-13-5-8(6)14-9(15)7(2)16-10(11)12/h3-5,7,10H,1-2H3,(H,14,15)/t7-/m0/s1/f/h14H", "fixed_inchikey": "XVSORZZOZIKMAO-AQCWBKAUNA-N"}

> <data_format>
sdf

$$$$
