LIG(A-306)
  -OEChem-06042511383D

 37 39  0     0  0  0  0  0  0999 V2000
    9.0172    0.7424   20.9559 O   0  0  0  0  0  0  0  0  0  0  0  0
    8.3664   -0.1976   21.4083 C   0  0  0  0  0  0  0  0  0  0  0  0
    8.8310   -0.9826   22.6214 C   0  0  0  0  0  0  0  0  0  0  0  0
   10.2497   -0.6655   23.0418 C   0  0  0  0  0  0  0  0  0  0  0  0
   10.5104    0.0983   24.1726 C   0  0  0  0  0  0  0  0  0  0  0  0
   11.8091    0.4651   24.4923 C   0  0  0  0  0  0  0  0  0  0  0  0
   12.8582    0.0670   23.6801 C   0  0  0  0  0  0  0  0  0  0  0  0
   11.3217   -1.0858   22.2606 C   0  0  0  0  0  0  0  0  0  0  0  0
   12.6295   -0.7299   22.5602 C   0  0  0  0  0  0  0  0  0  0  0  0
   13.7764   -1.2310   21.7175 C   0  0  0  0  0  0  0  0  0  0  0  0
    7.1905   -0.6106   20.8844 N   0  0  0  0  0  0  0  0  0  0  0  0
    6.4715   -0.0448   19.8043 C   0  0  0  0  0  0  0  0  0  0  0  0
    5.3753    0.8270   20.0948 C   0  0  0  0  0  0  0  0  0  0  0  0
    4.8870    1.0765   21.4051 C   0  0  0  0  0  0  0  0  0  0  0  0
    3.8407    1.9315   21.6135 C   0  0  0  0  0  0  0  0  0  0  0  0
    3.2299    2.5791   20.5468 C   0  0  0  0  0  0  0  0  0  0  0  0
    3.6593    2.3686   19.2677 C   0  0  0  0  0  0  0  0  0  0  0  0
    4.7365    1.4877   19.0031 C   0  0  0  0  0  0  0  0  0  0  0  0
    5.2168    1.2193   17.6977 C   0  0  0  0  0  0  0  0  0  0  0  0
    6.2231    0.3986   17.4265 N   0  0  0  0  0  0  0  0  0  0  0  0
    6.8190   -0.2118   18.4614 C   0  0  0  0  0  0  0  0  0  0  0  0
    8.1598   -0.7530   23.4620 H   0  0  0  0  0  0  0  0  0  0  0  0
    8.7697   -2.0553   22.3856 H   0  0  0  0  0  0  0  0  0  0  0  0
    9.6945    0.4092   24.8082 H   0  0  0  0  0  0  0  0  0  0  0  0
   12.0022    1.0600   25.3727 H   0  0  0  0  0  0  0  0  0  0  0  0
   13.8649    0.3778   23.9176 H   0  0  0  0  0  0  0  0  0  0  0  0
   11.1310   -1.7060   21.3972 H   0  0  0  0  0  0  0  0  0  0  0  0
   14.4458   -1.8460   22.3369 H   0  0  0  0  0  0  0  0  0  0  0  0
   13.3841   -1.8378   20.8881 H   0  0  0  0  0  0  0  0  0  0  0  0
   14.3355   -0.3745   21.3128 H   0  0  0  0  0  0  0  0  0  0  0  0
    6.7779   -1.4146   21.3125 H   0  0  0  0  0  0  0  0  0  0  0  0
    5.3484    0.5839   22.2482 H   0  0  0  0  0  0  0  0  0  0  0  0
    3.4852    2.1055   22.6183 H   0  0  0  0  0  0  0  0  0  0  0  0
    2.4080    3.2550   20.7308 H   0  0  0  0  0  0  0  0  0  0  0  0
    3.1727    2.8789   18.4495 H   0  0  0  0  0  0  0  0  0  0  0  0
    4.7322    1.7150   16.8695 H   0  0  0  0  0  0  0  0  0  0  0  0
    7.6325   -0.8863   18.2389 H   0  0  0  0  0  0  0  0  0  0  0  0
  1  2  2  0  0  0  0
  2  3  1  0  0  0  0
  2 11  1  0  0  0  0
  3  4  1  0  0  0  0
  3 22  1  0  0  0  0
  3 23  1  0  0  0  0
  4  5  2  0  0  0  0
  4  8  1  0  0  0  0
  5  6  1  0  0  0  0
  5 24  1  0  0  0  0
  6  7  2  0  0  0  0
  6 25  1  0  0  0  0
  7  9  1  0  0  0  0
  7 26  1  0  0  0  0
  8  9  2  0  0  0  0
  8 27  1  0  0  0  0
  9 10  1  0  0  0  0
 10 28  1  0  0  0  0
 10 29  1  0  0  0  0
 10 30  1  0  0  0  0
 11 12  1  0  0  0  0
 11 31  1  0  0  0  0
 12 13  2  0  0  0  0
 12 21  1  0  0  0  0
 13 14  1  0  0  0  0
 13 18  1  0  0  0  0
 14 15  2  0  0  0  0
 14 32  1  0  0  0  0
 15 16  1  0  0  0  0
 15 33  1  0  0  0  0
 16 17  2  0  0  0  0
 16 34  1  0  0  0  0
 17 18  1  0  0  0  0
 17 35  1  0  0  0  0
 18 19  2  0  0  0  0
 19 20  1  0  0  0  0
 19 36  1  0  0  0  0
 20 21  2  0  0  0  0
 21 37  1  0  0  0  0
M  END
> <compound_name>
RAL-THA-2d450e86-13

> <provenance>
{"isomeric_smiles": "Cc1cccc(c1)CC(=O)Nc2cncc3c2cccc3", "inchi": "InChI=1S/C18H16N2O/c1-13-5-4-6-14(9-13)10-18(21)20-17-12-19-11-15-7-2-3-8-16(15)17/h2-9,11-12H,10H2,1H3,(H,20,21)", "inchi_key": "VGTLCIFBGULFDX-UHFFFAOYSA-N", "fixed_inchi": "InChI=1/C18H16N2O/c1-13-5-4-6-14(9-13)10-18(21)20-17-12-19-11-15-7-2-3-8-16(15)17/h2-9,11-12H,10H2,1H3,(H,20,21)/f/h20H", "fixed_inchikey": "VGTLCIFBGULFDX-UYBDAZJANA-N"}

> <data_format>
sdf

$$$$
