LIG(A-306)
  -OEChem-06042511433D

 55 58  0     1  0  0  0  0  0999 V2000
   10.3848    2.2869   25.1740 O   0  0  0  0  0  0  0  0  0  0  0  0
   10.0559    1.3068   24.5311 C   0  0  0  0  0  0  0  0  0  0  0  0
    8.7550    0.8644   24.4990 N   0  0  0  0  0  0  0  0  0  0  0  0
    7.7732    1.4639   25.3881 C   0  0  0  0  0  0  0  0  0  0  0  0
    6.9885    2.6570   24.8661 C   0  0  0  0  0  0  0  0  0  0  0  0
    6.4691    3.4621   25.6402 O   0  0  0  0  0  0  0  0  0  0  0  0
    6.8535    2.7259   23.5324 N   0  0  0  0  0  0  0  0  0  0  0  0
    7.2047    3.9093   22.7333 C   0  0  0  0  0  0  0  0  0  0  0  0
    8.5339    4.5086   23.1602 C   0  0  0  0  0  0  0  0  0  0  0  0
    6.0837    4.9274   22.7535 C   0  0  0  0  0  0  0  0  0  0  0  0
   11.0294    0.5710   23.7034 C   0  0  0  0  0  0  0  0  0  0  0  0
   12.3751    0.9453   23.7361 C   0  0  0  0  0  0  0  0  0  0  0  0
   13.3127    0.2482   22.9966 C   0  0  0  0  0  0  0  0  0  0  0  0
   12.9046   -0.8333   22.2442 C   0  0  0  0  0  0  0  0  0  0  0  0
   14.0907   -1.7491   21.3535 Cl  0  0  0  0  0  0  0  0  0  0  0  0
   11.5758   -1.2104   22.1784 C   0  0  0  0  0  0  0  0  0  0  0  0
   10.6173   -0.4881   22.8861 C   0  0  0  0  0  0  0  0  0  0  0  0
    9.1466   -0.8125   22.7305 C   0  0  1  0  0  0  0  0  0  0  0  0
    8.4034   -0.4766   24.0243 C   0  0  0  0  0  0  0  0  0  0  0  0
    8.5731    0.0034   21.5696 C   0  0  0  0  0  0  0  0  0  0  0  0
    9.0262    1.1052   21.2541 O   0  0  0  0  0  0  0  0  0  0  0  0
    7.5090   -0.5615   20.9539 N   0  0  0  0  0  0  0  0  0  0  0  0
    6.7479   -0.0286   19.8896 C   0  0  0  0  0  0  0  0  0  0  0  0
    5.6045    0.7670   20.2107 C   0  0  0  0  0  0  0  0  0  0  0  0
    5.0918    0.9074   21.5234 C   0  0  0  0  0  0  0  0  0  0  0  0
    3.9963    1.6782   21.7714 C   0  0  0  0  0  0  0  0  0  0  0  0
    3.3895    2.3356   20.7297 C   0  0  0  0  0  0  0  0  0  0  0  0
    2.3000    3.1024   21.0056 F   0  0  0  0  0  0  0  0  0  0  0  0
    3.8123    2.2513   19.4412 C   0  0  0  0  0  0  0  0  0  0  0  0
    4.9357    1.4396   19.1491 C   0  0  0  0  0  0  0  0  0  0  0  0
    5.4242    1.2402   17.8340 C   0  0  0  0  0  0  0  0  0  0  0  0
    6.4637    0.4747   17.5311 N   0  0  0  0  0  0  0  0  0  0  0  0
    7.1006   -0.1336   18.5420 C   0  0  0  0  0  0  0  0  0  0  0  0
    7.0463    0.6814   25.6516 H   0  0  0  0  0  0  0  0  0  0  0  0
    8.3051    1.7903   26.2939 H   0  0  0  0  0  0  0  0  0  0  0  0
    6.4928    1.9253   23.0540 H   0  0  0  0  0  0  0  0  0  0  0  0
    7.3218    3.5811   21.6900 H   0  0  0  0  0  0  0  0  0  0  0  0
    8.7566    5.3883   22.5385 H   0  0  0  0  0  0  0  0  0  0  0  0
    8.4773    4.8110   24.2164 H   0  0  0  0  0  0  0  0  0  0  0  0
    9.3303    3.7603   23.0353 H   0  0  0  0  0  0  0  0  0  0  0  0
    6.3703    5.8011   22.1499 H   0  0  0  0  0  0  0  0  0  0  0  0
    5.1715    4.4765   22.3356 H   0  0  0  0  0  0  0  0  0  0  0  0
    5.8946    5.2438   23.7899 H   0  0  0  0  0  0  0  0  0  0  0  0
   12.6848    1.7837   24.3424 H   0  0  0  0  0  0  0  0  0  0  0  0
   14.3506    0.5465   23.0080 H   0  0  0  0  0  0  0  0  0  0  0  0
   11.2824   -2.0611   21.5811 H   0  0  0  0  0  0  0  0  0  0  0  0
    9.0292   -1.8843   22.5129 H   0  0  0  0  0  0  0  0  0  0  0  0
    8.6727   -1.2132   24.7955 H   0  0  0  0  0  0  0  0  0  0  0  0
    7.3201   -0.5197   23.8383 H   0  0  0  0  0  0  0  0  0  0  0  0
    7.2288   -1.4602   21.2912 H   0  0  0  0  0  0  0  0  0  0  0  0
    5.5772    0.3951   22.3410 H   0  0  0  0  0  0  0  0  0  0  0  0
    3.6097    1.7713   22.7755 H   0  0  0  0  0  0  0  0  0  0  0  0
    3.3028    2.7914   18.6568 H   0  0  0  0  0  0  0  0  0  0  0  0
    4.9166    1.7449   17.0253 H   0  0  0  0  0  0  0  0  0  0  0  0
    7.9512   -0.7518   18.2957 H   0  0  0  0  0  0  0  0  0  0  0  0
  1  2  2  0  0  0  0
  2  3  1  0  0  0  0
  2 11  1  0  0  0  0
  3  4  1  0  0  0  0
  3 19  1  0  0  0  0
  4  5  1  0  0  0  0
  4 34  1  0  0  0  0
  4 35  1  0  0  0  0
  5  6  2  0  0  0  0
  5  7  1  0  0  0  0
  7  8  1  0  0  0  0
  7 36  1  0  0  0  0
  8  9  1  0  0  0  0
  8 10  1  0  0  0  0
  8 37  1  0  0  0  0
  9 38  1  0  0  0  0
  9 39  1  0  0  0  0
  9 40  1  0  0  0  0
 10 41  1  0  0  0  0
 10 42  1  0  0  0  0
 10 43  1  0  0  0  0
 11 12  2  0  0  0  0
 11 17  1  0  0  0  0
 12 13  1  0  0  0  0
 12 44  1  0  0  0  0
 13 14  2  0  0  0  0
 13 45  1  0  0  0  0
 14 15  1  0  0  0  0
 14 16  1  0  0  0  0
 16 17  2  0  0  0  0
 16 46  1  0  0  0  0
 17 18  1  0  0  0  0
 18 19  1  0  0  0  0
 18 20  1  0  0  0  0
 18 47  1  0  0  0  0
 19 48  1  0  0  0  0
 19 49  1  0  0  0  0
 20 21  2  0  0  0  0
 20 22  1  0  0  0  0
 22 23  1  0  0  0  0
 22 50  1  0  0  0  0
 23 24  2  0  0  0  0
 23 33  1  0  0  0  0
 24 25  1  0  0  0  0
 24 30  1  0  0  0  0
 25 26  2  0  0  0  0
 25 51  1  0  0  0  0
 26 27  1  0  0  0  0
 26 52  1  0  0  0  0
 27 28  1  0  0  0  0
 27 29  2  0  0  0  0
 29 30  1  0  0  0  0
 29 53  1  0  0  0  0
 30 31  2  0  0  0  0
 31 32  1  0  0  0  0
 31 54  1  0  0  0  0
 32 33  2  0  0  0  0
 33 55  1  0  0  0  0
M  END
> <compound_name>
EDJ-MED-e69ed63d-1

> <provenance>
{"isomeric_smiles": "CC(C)NC(=O)CN1C[C@H](c2cc(ccc2C1=O)Cl)C(=O)Nc3cncc4c3ccc(c4)F", "inchi": "InChI=1S/C24H22ClFN4O3/c1-13(2)28-22(31)12-30-11-20(19-8-15(25)3-5-18(19)24(30)33)23(32)29-21-10-27-9-14-7-16(26)4-6-17(14)21/h3-10,13,20H,11-12H2,1-2H3,(H,28,31)(H,29,32)/t20-/m1/s1", "inchi_key": "MMRWQEDBDJLRBA-HXUWFJFHSA-N", "fixed_inchi": "InChI=1/C24H22ClFN4O3/c1-13(2)28-22(31)12-30-11-20(19-8-15(25)3-5-18(19)24(30)33)23(32)29-21-10-27-9-14-7-16(26)4-6-17(14)21/h3-10,13,20H,11-12H2,1-2H3,(H,28,31)(H,29,32)/t20-/m1/s1/f/h28-29H", "fixed_inchikey": "MMRWQEDBDJLRBA-MYQJGEHCNA-N"}

> <data_format>
sdf

$$$$
