LIG(A-305)
  -OEChem-06042511363D

 28 28  0     1  0  0  0  0  0999 V2000
    9.7443    1.0290   21.1055 O   0  0  0  0  0  0  0  0  0  0  0  0
    9.1853    0.0580   21.6085 C   0  0  0  0  0  0  0  0  0  0  0  0
    9.8343   -0.7041   22.7594 C   0  0  2  0  0  0  0  0  0  0  0  0
   10.9293    0.0528   23.3034 O   0  0  0  0  0  0  0  0  0  0  0  0
   10.6214    0.8338   24.3565 C   0  0  0  0  0  0  0  0  0  0  0  0
   10.9254    0.1047   25.4364 F   0  0  0  0  0  0  0  0  0  0  0  0
   11.4404    1.8977   24.2046 F   0  0  0  0  0  0  0  0  0  0  0  0
   10.4232   -2.0241   22.3153 C   0  0  0  0  0  0  0  0  0  0  0  0
    7.9583   -0.3889   21.2485 N   0  0  0  0  0  0  0  0  0  0  0  0
    7.1563    0.0852   20.1825 C   0  0  0  0  0  0  0  0  0  0  0  0
    5.9213    0.7012   20.4556 C   0  0  0  0  0  0  0  0  0  0  0  0
    5.4373    0.9331   21.8636 C   0  0  0  0  0  0  0  0  0  0  0  0
    5.1473    1.0943   19.3676 C   0  0  0  0  0  0  0  0  0  0  0  0
    5.6103    0.8703   18.0856 C   0  0  0  0  0  0  0  0  0  0  0  0
    6.7892    0.3063   17.8125 N   0  0  0  0  0  0  0  0  0  0  0  0
    7.5412   -0.0768   18.8495 C   0  0  0  0  0  0  0  0  0  0  0  0
    9.0784   -0.8897   23.5366 H   0  0  0  0  0  0  0  0  0  0  0  0
    9.5625    1.1316   24.3473 H   0  0  0  0  0  0  0  0  0  0  0  0
   10.8772   -2.5327   23.1787 H   0  0  0  0  0  0  0  0  0  0  0  0
    9.6283   -2.6567   21.8936 H   0  0  0  0  0  0  0  0  0  0  0  0
   11.1926   -1.8433   21.5502 H   0  0  0  0  0  0  0  0  0  0  0  0
    7.5776   -1.1349   21.7950 H   0  0  0  0  0  0  0  0  0  0  0  0
    6.1540    1.5748   22.3972 H   0  0  0  0  0  0  0  0  0  0  0  0
    4.4540    1.4254   21.8368 H   0  0  0  0  0  0  0  0  0  0  0  0
    5.3503   -0.0317   22.3849 H   0  0  0  0  0  0  0  0  0  0  0  0
    4.1911    1.5712   19.5248 H   0  0  0  0  0  0  0  0  0  0  0  0
    4.9837    1.1681   17.2579 H   0  0  0  0  0  0  0  0  0  0  0  0
    8.4973   -0.5359   18.6456 H   0  0  0  0  0  0  0  0  0  0  0  0
  1  2  2  0  0  0  0
  2  3  1  0  0  0  0
  2  9  1  0  0  0  0
  3  4  1  0  0  0  0
  3  8  1  0  0  0  0
  3 17  1  0  0  0  0
  4  5  1  0  0  0  0
  5  6  1  0  0  0  0
  5  7  1  0  0  0  0
  5 18  1  0  0  0  0
  8 19  1  0  0  0  0
  8 20  1  0  0  0  0
  8 21  1  0  0  0  0
  9 10  1  0  0  0  0
  9 22  1  0  0  0  0
 10 11  2  0  0  0  0
 10 16  1  0  0  0  0
 11 12  1  0  0  0  0
 11 13  1  0  0  0  0
 12 23  1  0  0  0  0
 12 24  1  0  0  0  0
 12 25  1  0  0  0  0
 13 14  2  0  0  0  0
 13 26  1  0  0  0  0
 14 15  1  0  0  0  0
 14 27  1  0  0  0  0
 15 16  2  0  0  0  0
 16 28  1  0  0  0  0
M  END
> <compound_name>
MAT-POS-5d20d11c-1

> <provenance>
{"isomeric_smiles": "Cc1ccncc1NC(=O)[C@@H](C)OC(F)F", "inchi": "InChI=1S/C10H12F2N2O2/c1-6-3-4-13-5-8(6)14-9(15)7(2)16-10(11)12/h3-5,7,10H,1-2H3,(H,14,15)/t7-/m1/s1", "inchi_key": "XVSORZZOZIKMAO-SSDOTTSWSA-N", "fixed_inchi": "InChI=1/C10H12F2N2O2/c1-6-3-4-13-5-8(6)14-9(15)7(2)16-10(11)12/h3-5,7,10H,1-2H3,(H,14,15)/t7-/m1/s1/f/h14H", "fixed_inchikey": "XVSORZZOZIKMAO-YKDKKCBQNA-N"}

> <data_format>
sdf

$$$$
