LIG(A-305)
  -OEChem-06042511333D

 31 32  0     0  0  0  0  0  0999 V2000
   11.0675    0.0917   23.8478 C   0  0  0  0  0  0  0  0  0  0  0  0
   13.9065   -1.5891   21.4268 F   0  0  0  0  0  0  0  0  0  0  0  0
    6.6125    0.5390   17.6018 N   0  0  0  0  0  0  0  0  0  0  0  0
   12.9625   -1.0162   22.2308 C   0  0  0  0  0  0  0  0  0  0  0  0
    5.6155    0.8148   20.2148 C   0  0  0  0  0  0  0  0  0  0  0  0
   13.3735   -0.1432   23.2059 C   0  0  0  0  0  0  0  0  0  0  0  0
    5.1275    1.0648   21.6188 C   0  0  0  0  0  0  0  0  0  0  0  0
   10.6745   -0.7812   22.8408 C   0  0  0  0  0  0  0  0  0  0  0  0
    4.9685    1.3879   19.1278 C   0  0  0  0  0  0  0  0  0  0  0  0
    8.6865   -0.1932   21.4568 C   0  0  0  0  0  0  0  0  0  0  0  0
    7.4695   -0.5492   21.0138 N   0  0  0  0  0  0  0  0  0  0  0  0
    9.3175    0.7698   21.0229 O   0  0  0  0  0  0  0  0  0  0  0  0
    6.7775    0.0699   19.9508 C   0  0  0  0  0  0  0  0  0  0  0  0
    9.2115   -1.0592   22.5848 C   0  0  0  0  0  0  0  0  0  0  0  0
    7.2305   -0.0391   18.6368 C   0  0  0  0  0  0  0  0  0  0  0  0
   12.4065    0.4017   24.0349 C   0  0  0  0  0  0  0  0  0  0  0  0
   11.6475   -1.3542   22.0288 C   0  0  0  0  0  0  0  0  0  0  0  0
    5.4915    1.2279   17.8588 C   0  0  0  0  0  0  0  0  0  0  0  0
   10.3219    0.5339   24.4922 H   0  0  0  0  0  0  0  0  0  0  0  0
   14.4166    0.1109   23.3234 H   0  0  0  0  0  0  0  0  0  0  0  0
    4.2481    1.7249   21.5898 H   0  0  0  0  0  0  0  0  0  0  0  0
    4.8524    0.1082   22.0870 H   0  0  0  0  0  0  0  0  0  0  0  0
    5.9260    1.5434   22.2047 H   0  0  0  0  0  0  0  0  0  0  0  0
    4.0614    1.9556   19.2735 H   0  0  0  0  0  0  0  0  0  0  0  0
    7.0178   -1.3137   21.4736 H   0  0  0  0  0  0  0  0  0  0  0  0
    8.6388   -0.8459   23.4994 H   0  0  0  0  0  0  0  0  0  0  0  0
    9.0880   -2.1181   22.3134 H   0  0  0  0  0  0  0  0  0  0  0  0
    8.1224   -0.6175   18.4461 H   0  0  0  0  0  0  0  0  0  0  0  0
   12.6967    1.0714   24.8309 H   0  0  0  0  0  0  0  0  0  0  0  0
   11.3731   -2.0532   21.2525 H   0  0  0  0  0  0  0  0  0  0  0  0
    4.9693    1.6823   17.0297 H   0  0  0  0  0  0  0  0  0  0  0  0
  1  8  1  0  0  0  0
  1 16  2  0  0  0  0
  1 19  1  0  0  0  0
  2  4  1  0  0  0  0
  3 15  1  0  0  0  0
  3 18  2  0  0  0  0
  4  6  2  0  0  0  0
  4 17  1  0  0  0  0
  5  7  1  0  0  0  0
  5  9  2  0  0  0  0
  5 13  1  0  0  0  0
  6 16  1  0  0  0  0
  6 20  1  0  0  0  0
  7 21  1  0  0  0  0
  7 22  1  0  0  0  0
  7 23  1  0  0  0  0
  8 14  1  0  0  0  0
  8 17  2  0  0  0  0
  9 18  1  0  0  0  0
  9 24  1  0  0  0  0
 10 11  1  0  0  0  0
 10 12  2  0  0  0  0
 10 14  1  0  0  0  0
 11 13  1  0  0  0  0
 11 25  1  0  0  0  0
 13 15  2  0  0  0  0
 14 26  1  0  0  0  0
 14 27  1  0  0  0  0
 15 28  1  0  0  0  0
 16 29  1  0  0  0  0
 17 30  1  0  0  0  0
 18 31  1  0  0  0  0
M  END
> <compound_name>
ALP-POS-95b75b4d-1

> <provenance>
{"isomeric_smiles": "Cc1ccncc1NC(=O)Cc2cccc(c2)F", "inchi": "InChI=1S/C14H13FN2O/c1-10-5-6-16-9-13(10)17-14(18)8-11-3-2-4-12(15)7-11/h2-7,9H,8H2,1H3,(H,17,18)", "inchi_key": "MLLQAKCWQMHQOK-UHFFFAOYSA-N", "fixed_inchi": "InChI=1/C14H13FN2O/c1-10-5-6-16-9-13(10)17-14(18)8-11-3-2-4-12(15)7-11/h2-7,9H,8H2,1H3,(H,17,18)/f/h17H", "fixed_inchikey": "MLLQAKCWQMHQOK-HCKMINDGNA-N"}

> <data_format>
sdf

$$$$
