LIG(A-306)
  -OEChem-06042511403D

 39 42  0     1  0  0  0  0  0999 V2000
   14.0459   -1.5385   21.1215 Cl  0  0  0  0  0  0  0  0  0  0  0  0
   12.9190   -0.7627   22.2018 C   0  0  0  0  0  0  0  0  0  0  0  0
   13.3981    0.1453   23.1367 C   0  0  0  0  0  0  0  0  0  0  0  0
   12.5041    0.8402   23.9329 C   0  0  0  0  0  0  0  0  0  0  0  0
   11.5670   -1.0148   22.0450 C   0  0  0  0  0  0  0  0  0  0  0  0
   10.6701   -0.2919   22.8202 C   0  0  0  0  0  0  0  0  0  0  0  0
   11.1401    0.6201   23.7581 C   0  0  0  0  0  0  0  0  0  0  0  0
   10.0622    1.1979   24.4243 N   0  0  0  0  0  0  0  0  0  0  0  0
    8.8741    0.7448   23.9565 C   0  0  0  0  0  0  0  0  0  0  0  0
    7.7652    1.0927   24.3397 O   0  0  0  0  0  0  0  0  0  0  0  0
    9.1591   -0.2661   22.8234 C   0  0  2  0  0  0  0  0  0  0  0  0
    8.5763   -1.6372   23.2414 C   0  0  0  0  0  0  0  0  0  0  0  0
    8.5578    0.3109   21.4905 C   0  0  0  0  0  0  0  0  0  0  0  0
    8.9326    1.4089   21.0995 O   0  0  0  0  0  0  0  0  0  0  0  0
    7.5898   -0.4102   20.8747 N   0  0  0  0  0  0  0  0  0  0  0  0
    6.8035    0.0068   19.7828 C   0  0  0  0  0  0  0  0  0  0  0  0
    5.6705    0.8396   20.0460 C   0  0  0  0  0  0  0  0  0  0  0  0
    5.1737    1.1105   21.3491 C   0  0  0  0  0  0  0  0  0  0  0  0
    4.0936    1.9254   21.5343 C   0  0  0  0  0  0  0  0  0  0  0  0
    3.4544    2.5134   20.4505 C   0  0  0  0  0  0  0  0  0  0  0  0
    3.8912    2.2815   19.1764 C   0  0  0  0  0  0  0  0  0  0  0  0
    5.0032    1.4336   18.9372 C   0  0  0  0  0  0  0  0  0  0  0  0
    5.4850    1.1327   17.6381 C   0  0  0  0  0  0  0  0  0  0  0  0
    6.5111    0.3299   17.3909 N   0  0  0  0  0  0  0  0  0  0  0  0
    7.1413   -0.2111   18.4437 C   0  0  0  0  0  0  0  0  0  0  0  0
   14.4606    0.3082   23.2420 H   0  0  0  0  0  0  0  0  0  0  0  0
   12.8578    1.5399   24.6757 H   0  0  0  0  0  0  0  0  0  0  0  0
   11.2191   -1.7540   21.3386 H   0  0  0  0  0  0  0  0  0  0  0  0
   10.1542    1.8680   25.1608 H   0  0  0  0  0  0  0  0  0  0  0  0
    8.7676   -2.3747   22.4481 H   0  0  0  0  0  0  0  0  0  0  0  0
    9.0549   -1.9698   24.1743 H   0  0  0  0  0  0  0  0  0  0  0  0
    7.4919   -1.5417   23.3994 H   0  0  0  0  0  0  0  0  0  0  0  0
    7.4165   -1.3286   21.2302 H   0  0  0  0  0  0  0  0  0  0  0  0
    5.6574    0.6653   22.2060 H   0  0  0  0  0  0  0  0  0  0  0  0
    3.7326    2.1147   22.5344 H   0  0  0  0  0  0  0  0  0  0  0  0
    2.6048    3.1594   20.6160 H   0  0  0  0  0  0  0  0  0  0  0  0
    3.3852    2.7480   18.3441 H   0  0  0  0  0  0  0  0  0  0  0  0
    4.9843    1.5866   16.7957 H   0  0  0  0  0  0  0  0  0  0  0  0
    7.9754   -0.8666   18.2414 H   0  0  0  0  0  0  0  0  0  0  0  0
  1  2  1  0  0  0  0
  2  3  2  0  0  0  0
  2  5  1  0  0  0  0
  3  4  1  0  0  0  0
  3 26  1  0  0  0  0
  4  7  2  0  0  0  0
  4 27  1  0  0  0  0
  5  6  2  0  0  0  0
  5 28  1  0  0  0  0
  6  7  1  0  0  0  0
  6 11  1  0  0  0  0
  7  8  1  0  0  0  0
  8  9  1  0  0  0  0
  8 29  1  0  0  0  0
  9 10  2  0  0  0  0
  9 11  1  0  0  0  0
 11 12  1  0  0  0  0
 11 13  1  0  0  0  0
 12 30  1  0  0  0  0
 12 31  1  0  0  0  0
 12 32  1  0  0  0  0
 13 14  2  0  0  0  0
 13 15  1  0  0  0  0
 15 16  1  0  0  0  0
 15 33  1  0  0  0  0
 16 17  2  0  0  0  0
 16 25  1  0  0  0  0
 17 18  1  0  0  0  0
 17 22  1  0  0  0  0
 18 19  2  0  0  0  0
 18 34  1  0  0  0  0
 19 20  1  0  0  0  0
 19 35  1  0  0  0  0
 20 21  2  0  0  0  0
 20 36  1  0  0  0  0
 21 22  1  0  0  0  0
 21 37  1  0  0  0  0
 22 23  2  0  0  0  0
 23 24  1  0  0  0  0
 23 38  1  0  0  0  0
 24 25  2  0  0  0  0
 25 39  1  0  0  0  0
M  END
> <compound_name>
EDJ-MED-9e38fd34-1

> <provenance>
{"isomeric_smiles": "C[C@@]1(c2cc(ccc2NC1=O)Cl)C(=O)Nc3cncc4c3cccc4", "inchi": "InChI=1S/C19H14ClN3O2/c1-19(14-8-12(20)6-7-15(14)22-17(19)24)18(25)23-16-10-21-9-11-4-2-3-5-13(11)16/h2-10H,1H3,(H,22,24)(H,23,25)/t19-/m0/s1", "inchi_key": "FZPBWXZGXXKTLK-IBGZPJMESA-N", "fixed_inchi": "InChI=1/C19H14ClN3O2/c1-19(14-8-12(20)6-7-15(14)22-17(19)24)18(25)23-16-10-21-9-11-4-2-3-5-13(11)16/h2-10H,1H3,(H,22,24)(H,23,25)/t19-/m0/s1/f/h22-23H", "fixed_inchikey": "FZPBWXZGXXKTLK-YOGRICEWNA-N"}

> <data_format>
sdf

$$$$
