LIG(A-307)
  -OEChem-06042511383D

 54 57  0     0  0  0  0  0  0999 V2000
    9.0367    1.4808   21.1177 O   0  0  0  0  0  0  0  0  0  0  0  0
    8.8447    0.3994   21.6643 C   0  0  0  0  0  0  0  0  0  0  0  0
    7.9307   -0.6327   21.0283 C   0  0  0  0  0  0  0  0  0  0  0  0
    7.0557   -0.0397   19.9453 C   0  0  0  0  0  0  0  0  0  0  0  0
    5.9503    0.7948   20.2745 C   0  0  0  0  0  0  0  0  0  0  0  0
    5.5690    1.0969   21.6090 C   0  0  0  0  0  0  0  0  0  0  0  0
    4.5086    1.9207   21.8681 C   0  0  0  0  0  0  0  0  0  0  0  0
    3.7785    2.4822   20.8299 C   0  0  0  0  0  0  0  0  0  0  0  0
    4.1090    2.2260   19.5296 C   0  0  0  0  0  0  0  0  0  0  0  0
    5.1943    1.3745   19.2174 C   0  0  0  0  0  0  0  0  0  0  0  0
    5.5917    1.0743   17.8898 C   0  0  0  0  0  0  0  0  0  0  0  0
    6.6172    0.2848   17.5849 N   0  0  0  0  0  0  0  0  0  0  0  0
    7.3172   -0.2465   18.6022 C   0  0  0  0  0  0  0  0  0  0  0  0
    9.3912    0.0974   22.8778 N   0  0  0  0  0  0  0  0  0  0  0  0
    9.2159   -1.1395   23.5177 C   0  0  0  0  0  0  0  0  0  0  0  0
    8.4037   -1.2645   24.6362 C   0  0  0  0  0  0  0  0  0  0  0  0
    8.3734   -2.4945   25.2631 C   0  0  0  0  0  0  0  0  0  0  0  0
    9.9409   -2.1433   23.0037 N   0  0  0  0  0  0  0  0  0  0  0  0
    9.8907   -3.3373   23.6208 C   0  0  0  0  0  0  0  0  0  0  0  0
    9.1204   -3.5625   24.7598 C   0  0  0  0  0  0  0  0  0  0  0  0
    9.0920   -4.8164   25.3656 N   0  0  0  0  0  0  0  0  0  0  0  0
    8.6928   -4.9625   26.7559 C   0  0  0  0  0  0  0  0  0  0  0  0
    9.8639   -5.9303   24.8320 C   0  0  0  0  0  0  0  0  0  0  0  0
   10.1832    1.1285   23.5619 C   0  0  0  0  0  0  0  0  0  0  0  0
   11.6232    1.1810   23.1091 C   0  0  0  0  0  0  0  0  0  0  0  0
   12.2251    0.0617   22.5405 C   0  0  0  0  0  0  0  0  0  0  0  0
   13.5022    0.1628   22.0209 C   0  0  0  0  0  0  0  0  0  0  0  0
   14.1446   -1.1698   21.0943 Cl  0  0  0  0  0  0  0  0  0  0  0  0
   14.2514    1.3097   22.1595 C   0  0  0  0  0  0  0  0  0  0  0  0
   13.6606    2.4210   22.7411 C   0  0  0  0  0  0  0  0  0  0  0  0
   12.3505    2.3612   23.1929 C   0  0  0  0  0  0  0  0  0  0  0  0
    8.5492   -1.4279   20.5866 H   0  0  0  0  0  0  0  0  0  0  0  0
    7.2849   -1.0613   21.8088 H   0  0  0  0  0  0  0  0  0  0  0  0
    6.1245    0.6699   22.4309 H   0  0  0  0  0  0  0  0  0  0  0  0
    4.2365    2.1363   22.8908 H   0  0  0  0  0  0  0  0  0  0  0  0
    2.9416    3.1276   21.0522 H   0  0  0  0  0  0  0  0  0  0  0  0
    3.5365    2.6775   18.7329 H   0  0  0  0  0  0  0  0  0  0  0  0
    5.0285    1.5124   17.0791 H   0  0  0  0  0  0  0  0  0  0  0  0
    8.1505   -0.8861   18.3512 H   0  0  0  0  0  0  0  0  0  0  0  0
    7.8189   -0.4332   25.0015 H   0  0  0  0  0  0  0  0  0  0  0  0
    7.7689   -2.6317   26.1475 H   0  0  0  0  0  0  0  0  0  0  0  0
   10.4707   -4.1542   23.2174 H   0  0  0  0  0  0  0  0  0  0  0  0
    8.7371   -6.0241   27.0410 H   0  0  0  0  0  0  0  0  0  0  0  0
    9.3741   -4.3824   27.3957 H   0  0  0  0  0  0  0  0  0  0  0  0
    7.6651   -4.5914   26.8831 H   0  0  0  0  0  0  0  0  0  0  0  0
    9.7007   -6.8220   25.4551 H   0  0  0  0  0  0  0  0  0  0  0  0
    9.5413   -6.1393   23.8014 H   0  0  0  0  0  0  0  0  0  0  0  0
   10.9329   -5.6708   24.8362 H   0  0  0  0  0  0  0  0  0  0  0  0
    9.7213    2.1079   23.3682 H   0  0  0  0  0  0  0  0  0  0  0  0
   10.1652    0.9218   24.6422 H   0  0  0  0  0  0  0  0  0  0  0  0
   11.6974   -0.8800   22.5056 H   0  0  0  0  0  0  0  0  0  0  0  0
   15.2770    1.3429   21.8226 H   0  0  0  0  0  0  0  0  0  0  0  0
   14.2229    3.3374   22.8428 H   0  0  0  0  0  0  0  0  0  0  0  0
   11.8907    3.2427   23.6147 H   0  0  0  0  0  0  0  0  0  0  0  0
  1  2  2  0  0  0  0
  2  3  1  0  0  0  0
  2 14  1  0  0  0  0
  3  4  1  0  0  0  0
  3 32  1  0  0  0  0
  3 33  1  0  0  0  0
  4  5  2  0  0  0  0
  4 13  1  0  0  0  0
  5  6  1  0  0  0  0
  5 10  1  0  0  0  0
  6  7  2  0  0  0  0
  6 34  1  0  0  0  0
  7  8  1  0  0  0  0
  7 35  1  0  0  0  0
  8  9  2  0  0  0  0
  8 36  1  0  0  0  0
  9 10  1  0  0  0  0
  9 37  1  0  0  0  0
 10 11  2  0  0  0  0
 11 12  1  0  0  0  0
 11 38  1  0  0  0  0
 12 13  2  0  0  0  0
 13 39  1  0  0  0  0
 14 15  1  0  0  0  0
 14 24  1  0  0  0  0
 15 16  2  0  0  0  0
 15 18  1  0  0  0  0
 16 17  1  0  0  0  0
 16 40  1  0  0  0  0
 17 20  2  0  0  0  0
 17 41  1  0  0  0  0
 18 19  2  0  0  0  0
 19 20  1  0  0  0  0
 19 42  1  0  0  0  0
 20 21  1  0  0  0  0
 21 22  1  0  0  0  0
 21 23  1  0  0  0  0
 22 43  1  0  0  0  0
 22 44  1  0  0  0  0
 22 45  1  0  0  0  0
 23 46  1  0  0  0  0
 23 47  1  0  0  0  0
 23 48  1  0  0  0  0
 24 25  1  0  0  0  0
 24 49  1  0  0  0  0
 24 50  1  0  0  0  0
 25 26  2  0  0  0  0
 25 31  1  0  0  0  0
 26 27  1  0  0  0  0
 26 51  1  0  0  0  0
 27 28  1  0  0  0  0
 27 29  2  0  0  0  0
 29 30  1  0  0  0  0
 29 52  1  0  0  0  0
 30 31  2  0  0  0  0
 30 53  1  0  0  0  0
 31 54  1  0  0  0  0
M  END
> <compound_name>
MAT-POS-6c284e65-1

> <provenance>
{"isomeric_smiles": "CN(C)c1ccc(nc1)N(Cc2cccc(c2)Cl)C(=O)Cc3cncc4c3cccc4", "inchi": "InChI=1S/C25H23ClN4O/c1-29(2)22-10-11-24(28-16-22)30(17-18-6-5-8-21(26)12-18)25(31)13-20-15-27-14-19-7-3-4-9-23(19)20/h3-12,14-16H,13,17H2,1-2H3", "inchi_key": "UJFDJUBIAPUKQV-UHFFFAOYSA-N", "fixed_inchi": "InChI=1/C25H23ClN4O/c1-29(2)22-10-11-24(28-16-22)30(17-18-6-5-8-21(26)12-18)25(31)13-20-15-27-14-19-7-3-4-9-23(19)20/h3-12,14-16H,13,17H2,1-2H3", "fixed_inchikey": "UJFDJUBIAPUKQV-UHFFFAOYNA-N"}

> <data_format>
sdf

$$$$
