LIG(A-305)
  -OEChem-06042511313D

 40 43  0     1  0  0  0  0  0999 V2000
    9.2611    1.1523   21.0932 O   0  0  0  0  0  0  0  0  0  0  0  0
    8.7621    0.0994   21.4663 C   0  0  0  0  0  0  0  0  0  0  0  0
    7.7479   -0.5085   20.7684 N   0  0  0  0  0  0  0  0  0  0  0  0
    7.2308   -0.0474   19.5755 C   0  0  0  0  0  0  0  0  0  0  0  0
    5.9758    0.4887   19.4747 N   0  0  0  0  0  0  0  0  0  0  0  0
    4.9950    0.7028   20.5558 C   0  0  0  0  0  0  0  0  0  0  0  0
    5.1343    1.9178   21.4028 C   0  0  0  0  0  0  0  0  0  0  0  0
    4.0231    1.8190   20.4090 C   0  0  0  0  0  0  0  0  0  0  0  0
    5.8587    0.8398   18.1627 C   0  0  0  0  0  0  0  0  0  0  0  0
    6.9446    0.5627   17.5055 N   0  0  0  0  0  0  0  0  0  0  0  0
    7.8296   -0.0125   18.3994 N   0  0  0  0  0  0  0  0  0  0  0  0
    9.2142   -0.5777   22.7792 C   0  0  1  0  0  0  0  0  0  0  0  0
    8.9450   -2.0916   22.8932 C   0  0  0  0  0  0  0  0  0  0  0  0
   10.7312   -0.3949   22.8050 C   0  0  0  0  0  0  0  0  0  0  0  0
   11.5350   -1.0029   21.8509 C   0  0  0  0  0  0  0  0  0  0  0  0
   12.8960   -0.7491   21.8057 C   0  0  0  0  0  0  0  0  0  0  0  0
   13.4732    0.1128   22.7116 C   0  0  0  0  0  0  0  0  0  0  0  0
   12.7005    0.7199   23.6907 C   0  0  0  0  0  0  0  0  0  0  0  0
   11.3414    0.4461   23.7369 C   0  0  0  0  0  0  0  0  0  0  0  0
   10.6496    1.0131   24.7760 O   0  0  0  0  0  0  0  0  0  0  0  0
    9.2966    1.3613   24.4282 C   0  0  0  0  0  0  0  0  0  0  0  0
    8.5164    0.1524   23.9553 C   0  0  0  0  0  0  0  0  0  0  0  0
    7.3563   -1.3448   21.1521 H   0  0  0  0  0  0  0  0  0  0  0  0
    4.6224   -0.1998   21.0622 H   0  0  0  0  0  0  0  0  0  0  0  0
    4.9158    1.8661   22.4796 H   0  0  0  0  0  0  0  0  0  0  0  0
    5.9662    2.6164   21.2306 H   0  0  0  0  0  0  0  0  0  0  0  0
    2.9860    1.6945   20.7536 H   0  0  0  0  0  0  0  0  0  0  0  0
    4.0364    2.4449   19.5045 H   0  0  0  0  0  0  0  0  0  0  0  0
    4.9787    1.2893   17.7268 H   0  0  0  0  0  0  0  0  0  0  0  0
    9.3084   -2.4570   23.8651 H   0  0  0  0  0  0  0  0  0  0  0  0
    7.8641   -2.2789   22.8122 H   0  0  0  0  0  0  0  0  0  0  0  0
    9.4703   -2.6193   22.0835 H   0  0  0  0  0  0  0  0  0  0  0  0
   11.0944   -1.6817   21.1356 H   0  0  0  0  0  0  0  0  0  0  0  0
   13.5076   -1.2295   21.0563 H   0  0  0  0  0  0  0  0  0  0  0  0
   14.5325    0.3170   22.6595 H   0  0  0  0  0  0  0  0  0  0  0  0
   13.1493    1.3943   24.4050 H   0  0  0  0  0  0  0  0  0  0  0  0
    8.7980    1.7849   25.3125 H   0  0  0  0  0  0  0  0  0  0  0  0
    9.3161    2.1112   23.6237 H   0  0  0  0  0  0  0  0  0  0  0  0
    8.4110   -0.5506   24.7948 H   0  0  0  0  0  0  0  0  0  0  0  0
    7.5201    0.4818   23.6255 H   0  0  0  0  0  0  0  0  0  0  0  0
  1  2  2  0  0  0  0
  2  3  1  0  0  0  0
  2 12  1  0  0  0  0
  3  4  1  0  0  0  0
  3 23  1  0  0  0  0
  4  5  1  0  0  0  0
  4 11  2  0  0  0  0
  5  6  1  0  0  0  0
  5  9  1  0  0  0  0
  6  7  1  0  0  0  0
  6  8  1  0  0  0  0
  6 24  1  0  0  0  0
  7  8  1  0  0  0  0
  7 25  1  0  0  0  0
  7 26  1  0  0  0  0
  8 27  1  0  0  0  0
  8 28  1  0  0  0  0
  9 10  2  0  0  0  0
  9 29  1  0  0  0  0
 10 11  1  0  0  0  0
 12 13  1  0  0  0  0
 12 14  1  0  0  0  0
 12 22  1  0  0  0  0
 13 30  1  0  0  0  0
 13 31  1  0  0  0  0
 13 32  1  0  0  0  0
 14 15  2  0  0  0  0
 14 19  1  0  0  0  0
 15 16  1  0  0  0  0
 15 33  1  0  0  0  0
 16 17  2  0  0  0  0
 16 34  1  0  0  0  0
 17 18  1  0  0  0  0
 17 35  1  0  0  0  0
 18 19  2  0  0  0  0
 18 36  1  0  0  0  0
 19 20  1  0  0  0  0
 20 21  1  0  0  0  0
 21 22  1  0  0  0  0
 21 37  1  0  0  0  0
 21 38  1  0  0  0  0
 22 39  1  0  0  0  0
 22 40  1  0  0  0  0
M  END
> <compound_name>
BRU-THA-a358fbdd-2

> <provenance>
{"isomeric_smiles": "C[C@]1(CCOc2c1cccc2)C(=O)Nc3nncn3C4CC4", "inchi": "InChI=1S/C16H18N4O2/c1-16(8-9-22-13-5-3-2-4-12(13)16)14(21)18-15-19-17-10-20(15)11-6-7-11/h2-5,10-11H,6-9H2,1H3,(H,18,19,21)/t16-/m1/s1", "inchi_key": "UPRDTUXXNWJLMA-MRXNPFEDSA-N", "fixed_inchi": "InChI=1/C16H18N4O2/c1-16(8-9-22-13-5-3-2-4-12(13)16)14(21)18-15-19-17-10-20(15)11-6-7-11/h2-5,10-11H,6-9H2,1H3,(H,18,19,21)/t16-/m1/s1/f/h18H", "fixed_inchikey": "UPRDTUXXNWJLMA-HIJIHLGBNA-N"}

> <data_format>
sdf

$$$$
