LIG(A-306)
  -OEChem-06042511423D

 50 52  0     0  0  0  0  0  0999 V2000
   14.1083   -1.6417   21.4707 Cl  0  0  0  0  0  0  0  0  0  0  0  0
   12.8052   -0.9412   22.3897 C   0  0  0  0  0  0  0  0  0  0  0  0
   13.0891    0.0104   23.3519 C   0  0  0  0  0  0  0  0  0  0  0  0
   12.0438    0.5257   24.1040 C   0  0  0  0  0  0  0  0  0  0  0  0
   10.7396    0.1153   23.8619 C   0  0  0  0  0  0  0  0  0  0  0  0
   11.5139   -1.3636   22.1446 C   0  0  0  0  0  0  0  0  0  0  0  0
   10.4596   -0.8164   22.8687 C   0  0  0  0  0  0  0  0  0  0  0  0
    9.0363   -1.1720   22.5146 C   0  0  0  0  0  0  0  0  0  0  0  0
    8.4763   -0.2547   21.4456 C   0  0  0  0  0  0  0  0  0  0  0  0
    9.0160    0.8128   21.1513 O   0  0  0  0  0  0  0  0  0  0  0  0
    7.3527   -0.7037   20.8554 N   0  0  0  0  0  0  0  0  0  0  0  0
    6.6208   -0.0754   19.8291 C   0  0  0  0  0  0  0  0  0  0  0  0
    6.8905   -0.2247   18.4671 C   0  0  0  0  0  0  0  0  0  0  0  0
    6.2316    0.4007   17.4826 N   0  0  0  0  0  0  0  0  0  0  0  0
    5.2489    1.2253   17.8262 C   0  0  0  0  0  0  0  0  0  0  0  0
    4.8652    1.4945   19.1631 C   0  0  0  0  0  0  0  0  0  0  0  0
    5.5731    0.8222   20.2015 C   0  0  0  0  0  0  0  0  0  0  0  0
    5.2314    1.1145   21.5464 C   0  0  0  0  0  0  0  0  0  0  0  0
    4.2467    2.0100   21.8458 C   0  0  0  0  0  0  0  0  0  0  0  0
    3.8475    2.4171   19.5065 C   0  0  0  0  0  0  0  0  0  0  0  0
    3.5557    2.6573   20.8274 C   0  0  0  0  0  0  0  0  0  0  0  0
    2.5912    3.5241   21.2858 O   0  0  0  0  0  0  0  0  0  0  0  0
    1.9343    4.3795   20.3360 C   0  0  0  0  0  0  0  0  0  0  0  0
    0.9680    5.2857   21.0744 C   0  0  0  0  0  0  0  0  0  0  0  0
    1.4587    6.4510   21.8360 N   0  3  0  0  0  0  0  0  0  0  0  0
    2.7523    6.9692   21.3800 C   0  0  0  0  0  0  0  0  0  0  0  0
    1.4951    6.1784   23.2735 C   0  0  0  0  0  0  0  0  0  0  0  0
   14.1029    0.3453   23.5143 H   0  0  0  0  0  0  0  0  0  0  0  0
   12.2450    1.2486   24.8807 H   0  0  0  0  0  0  0  0  0  0  0  0
    9.9331    0.5247   24.4522 H   0  0  0  0  0  0  0  0  0  0  0  0
   11.3230   -2.1160   21.3937 H   0  0  0  0  0  0  0  0  0  0  0  0
    9.0094   -2.2077   22.1450 H   0  0  0  0  0  0  0  0  0  0  0  0
    8.4133   -1.0886   23.4174 H   0  0  0  0  0  0  0  0  0  0  0  0
    6.9986   -1.5802   21.1817 H   0  0  0  0  0  0  0  0  0  0  0  0
    7.6900   -0.8944   18.1864 H   0  0  0  0  0  0  0  0  0  0  0  0
    4.7073    1.7228   17.0353 H   0  0  0  0  0  0  0  0  0  0  0  0
    5.7599    0.6195   22.3476 H   0  0  0  0  0  0  0  0  0  0  0  0
    4.0030    2.2169   22.8774 H   0  0  0  0  0  0  0  0  0  0  0  0
    3.3008    2.9319   18.7304 H   0  0  0  0  0  0  0  0  0  0  0  0
    2.6830    4.9895   19.8094 H   0  0  0  0  0  0  0  0  0  0  0  0
    1.3824    3.7670   19.6079 H   0  0  0  0  0  0  0  0  0  0  0  0
    0.2658    5.6751   20.3225 H   0  0  0  0  0  0  0  0  0  0  0  0
    0.4248    4.6498   21.7889 H   0  0  0  0  0  0  0  0  0  0  0  0
    0.7915    7.1831   21.6987 H   0  0  0  0  0  0  0  0  0  0  0  0
    3.0411    7.8316   21.9987 H   0  0  0  0  0  0  0  0  0  0  0  0
    3.5150    6.1818   21.4701 H   0  0  0  0  0  0  0  0  0  0  0  0
    2.6715    7.2829   20.3287 H   0  0  0  0  0  0  0  0  0  0  0  0
    1.8648    7.0668   23.8064 H   0  0  0  0  0  0  0  0  0  0  0  0
    0.4820    5.9346   23.6260 H   0  0  0  0  0  0  0  0  0  0  0  0
    2.1657    5.3285   23.4685 H   0  0  0  0  0  0  0  0  0  0  0  0
  1  2  1  0  0  0  0
  2  3  2  0  0  0  0
  2  6  1  0  0  0  0
  3  4  1  0  0  0  0
  3 28  1  0  0  0  0
  4  5  2  0  0  0  0
  4 29  1  0  0  0  0
  5  7  1  0  0  0  0
  5 30  1  0  0  0  0
  6  7  2  0  0  0  0
  6 31  1  0  0  0  0
  7  8  1  0  0  0  0
  8  9  1  0  0  0  0
  8 32  1  0  0  0  0
  8 33  1  0  0  0  0
  9 10  2  0  0  0  0
  9 11  1  0  0  0  0
 11 12  1  0  0  0  0
 11 34  1  0  0  0  0
 12 13  2  0  0  0  0
 12 17  1  0  0  0  0
 13 14  1  0  0  0  0
 13 35  1  0  0  0  0
 14 15  2  0  0  0  0
 15 16  1  0  0  0  0
 15 36  1  0  0  0  0
 16 17  2  0  0  0  0
 16 20  1  0  0  0  0
 17 18  1  0  0  0  0
 18 19  2  0  0  0  0
 18 37  1  0  0  0  0
 19 21  1  0  0  0  0
 19 38  1  0  0  0  0
 20 21  2  0  0  0  0
 20 39  1  0  0  0  0
 21 22  1  0  0  0  0
 22 23  1  0  0  0  0
 23 24  1  0  0  0  0
 23 40  1  0  0  0  0
 23 41  1  0  0  0  0
 24 25  1  0  0  0  0
 24 42  1  0  0  0  0
 24 43  1  0  0  0  0
 25 26  1  0  0  0  0
 25 27  1  0  0  0  0
 25 44  1  0  0  0  0
 26 45  1  0  0  0  0
 26 46  1  0  0  0  0
 26 47  1  0  0  0  0
 27 48  1  0  0  0  0
 27 49  1  0  0  0  0
 27 50  1  0  0  0  0
M  CHG  1  25   1
M  END
> <compound_name>
MAT-POS-90fd5f68-13

> <provenance>
{"isomeric_smiles": "C[NH+](C)CCOc1ccc2c(c1)cncc2NC(=O)Cc3cccc(c3)Cl", "inchi": "InChI=1S/C21H22ClN3O2/c1-25(2)8-9-27-18-6-7-19-16(12-18)13-23-14-20(19)24-21(26)11-15-4-3-5-17(22)10-15/h3-7,10,12-14H,8-9,11H2,1-2H3,(H,24,26)/p+1", "inchi_key": "LASXIBJOIXVTDT-UHFFFAOYSA-O", "fixed_inchi": "InChI=1/C21H22ClN3O2/c1-25(2)8-9-27-18-6-7-19-16(12-18)13-23-14-20(19)24-21(26)11-15-4-3-5-17(22)10-15/h3-7,10,12-14H,8-9,11H2,1-2H3,(H,24,26)/p+1/fC21H23ClN3O2/h24-25H/q+1", "fixed_inchikey": "LASXIBJOIXVTDT-UJJXMDJCNA-O"}

> <data_format>
sdf

$$$$
