LIG(A-305)
  -OEChem-06042511323D

 28 29  0     1  0  0  0  0  0999 V2000
   10.0431    1.4412   21.3845 N   0  0  0  0  0  0  0  0  0  0  0  0
    9.9000    0.4753   21.9926 C   0  0  0  0  0  0  0  0  0  0  0  0
    7.4237   -5.8975   25.4407 O   0  0  0  0  0  0  0  0  0  0  0  0
    9.7290   -0.6767   22.7806 C   0  0  0  0  0  0  0  0  0  0  0  0
    8.8329   -4.1827   26.5046 C   0  0  0  0  0  0  0  0  0  0  0  0
    9.0241   -0.5757   23.9686 C   0  0  0  0  0  0  0  0  0  0  0  0
    8.9490   -1.6857   24.8036 C   0  0  0  0  0  0  0  0  0  0  0  0
    9.5849   -2.8927   24.4456 C   0  0  0  0  0  0  0  0  0  0  0  0
   10.2578   -2.8818   23.1785 C   0  0  0  0  0  0  0  0  0  0  0  0
   10.0187   -5.3958   24.6795 C   0  0  0  0  0  0  0  0  0  0  0  0
    9.0296   -5.8987   23.6216 C   0  0  0  0  0  0  0  0  0  0  0  0
    7.5646   -5.6785   24.0417 C   0  0  0  0  0  0  0  0  0  0  0  0
    7.4149   -4.7705   26.2827 C   0  0  0  0  0  0  0  0  0  0  0  0
   10.3398   -1.8218   22.3565 N   0  0  0  0  0  0  0  0  0  0  0  0
    9.6608   -4.0767   25.2716 N   0  0  2  0  0  0  0  0  0  0  0  0
    8.7235   -3.1749   26.9317 H   0  0  0  0  0  0  0  0  0  0  0  0
    9.3638   -4.8283   27.2197 H   0  0  0  0  0  0  0  0  0  0  0  0
    8.5404    0.3504   24.2424 H   0  0  0  0  0  0  0  0  0  0  0  0
    8.4005   -1.6228   25.7319 H   0  0  0  0  0  0  0  0  0  0  0  0
   10.7356   -3.7966   22.8606 H   0  0  0  0  0  0  0  0  0  0  0  0
   10.0629   -6.1374   25.4907 H   0  0  0  0  0  0  0  0  0  0  0  0
   11.0096   -5.3060   24.2104 H   0  0  0  0  0  0  0  0  0  0  0  0
    9.2129   -5.3591   22.6807 H   0  0  0  0  0  0  0  0  0  0  0  0
    9.1951   -6.9749   23.4654 H   0  0  0  0  0  0  0  0  0  0  0  0
    6.9189   -6.3820   23.4956 H   0  0  0  0  0  0  0  0  0  0  0  0
    7.2677   -4.6468   23.8023 H   0  0  0  0  0  0  0  0  0  0  0  0
    6.7792   -3.9961   25.8287 H   0  0  0  0  0  0  0  0  0  0  0  0
    6.9975   -5.0622   27.2578 H   0  0  0  0  0  0  0  0  0  0  0  0
  1  2  3  0  0  0  0
  2  4  1  0  0  0  0
  3 12  1  0  0  0  0
  3 13  1  0  0  0  0
  4  6  2  0  0  0  0
  4 14  1  0  0  0  0
  5 13  1  0  0  0  0
  5 15  1  0  0  0  0
  5 16  1  0  0  0  0
  5 17  1  0  0  0  0
  6  7  1  0  0  0  0
  6 18  1  0  0  0  0
  7  8  2  0  0  0  0
  7 19  1  0  0  0  0
  8  9  1  0  0  0  0
  8 15  1  0  0  0  0
  9 14  2  0  0  0  0
  9 20  1  0  0  0  0
 10 11  1  0  0  0  0
 10 15  1  0  0  0  0
 10 21  1  0  0  0  0
 10 22  1  0  0  0  0
 11 12  1  0  0  0  0
 11 23  1  0  0  0  0
 11 24  1  0  0  0  0
 12 25  1  0  0  0  0
 12 26  1  0  0  0  0
 13 27  1  0  0  0  0
 13 28  1  0  0  0  0
M  END
> <compound_name>
AAR-POS-d2a4d1df-19

> <provenance>
{"isomeric_smiles": "c1cc(ncc1[N@@]2CCCOCC2)C#N", "inchi": "InChI=1S/C11H13N3O/c12-8-10-2-3-11(9-13-10)14-4-1-6-15-7-5-14/h2-3,9H,1,4-7H2", "inchi_key": "QPJKHSFVBDONPD-UHFFFAOYSA-N", "fixed_inchi": "InChI=1/C11H13N3O/c12-8-10-2-3-11(9-13-10)14-4-1-6-15-7-5-14/h2-3,9H,1,4-7H2", "fixed_inchikey": "QPJKHSFVBDONPD-UHFFFAOYNA-N"}

> <data_format>
sdf

$$$$
