LIG(A-305)
  -OEChem-06042511333D

 48 51  0     0  0  0  0  0  0999 V2000
    8.6704    1.0142   21.0239 O   0  0  0  0  0  0  0  0  0  0  0  0
    8.5823   -0.1898   21.2540 C   0  0  0  0  0  0  0  0  0  0  0  0
    7.3993   -1.0108   20.7780 C   0  0  0  0  0  0  0  0  0  0  0  0
    6.6244   -0.2468   19.7250 C   0  0  0  0  0  0  0  0  0  0  0  0
    5.5364    0.5882   20.0889 C   0  0  0  0  0  0  0  0  0  0  0  0
    5.1064    0.7683   21.4289 C   0  0  0  0  0  0  0  0  0  0  0  0
    4.0674    1.5993   21.7279 C   0  0  0  0  0  0  0  0  0  0  0  0
    3.4024    2.2853   20.7259 C   0  0  0  0  0  0  0  0  0  0  0  0
    3.7784    2.1493   19.4219 C   0  0  0  0  0  0  0  0  0  0  0  0
    4.8554    1.3012   19.0689 C   0  0  0  0  0  0  0  0  0  0  0  0
    5.3144    1.1362   17.7419 C   0  0  0  0  0  0  0  0  0  0  0  0
    6.3374    0.3631   17.4049 N   0  0  0  0  0  0  0  0  0  0  0  0
    6.9574   -0.3068   18.3860 C   0  0  0  0  0  0  0  0  0  0  0  0
    9.5053   -0.8948   21.9400 N   0  0  0  0  0  0  0  0  0  0  0  0
   10.6763   -0.4018   22.5590 C   0  0  0  0  0  0  0  0  0  0  0  0
   11.7903   -1.2258   22.6780 C   0  0  0  0  0  0  0  0  0  0  0  0
   12.9233   -0.7279   23.2920 C   0  0  0  0  0  0  0  0  0  0  0  0
   14.2713   -1.7919   23.5551 Cl  0  0  0  0  0  0  0  0  0  0  0  0
   12.9953    0.5662   23.7640 C   0  0  0  0  0  0  0  0  0  0  0  0
   10.7174    0.9022   23.0410 C   0  0  0  0  0  0  0  0  0  0  0  0
   11.8744    1.3722   23.6360 C   0  0  0  0  0  0  0  0  0  0  0  0
   11.8464    2.6502   24.1889 O   0  0  0  0  0  0  0  0  0  0  0  0
   12.4834    3.7052   23.6039 C   0  0  0  0  0  0  0  0  0  0  0  0
   13.0694    3.4971   22.3539 C   0  0  0  0  0  0  0  0  0  0  0  0
   13.7314    4.5711   21.7809 C   0  0  0  0  0  0  0  0  0  0  0  0
   13.7815    5.7871   22.4389 C   0  0  0  0  0  0  0  0  0  0  0  0
   12.5124    4.8542   24.2709 N   0  0  0  0  0  0  0  0  0  0  0  0
   13.1475    5.8681   23.6839 C   0  0  0  0  0  0  0  0  0  0  0  0
   13.2115    7.0742   24.2908 O   0  0  0  0  0  0  0  0  0  0  0  0
   12.5925    7.2192   25.5798 C   0  0  0  0  0  0  0  0  0  0  0  0
    7.7621   -1.9561   20.3481 H   0  0  0  0  0  0  0  0  0  0  0  0
    6.7389   -1.2256   21.6311 H   0  0  0  0  0  0  0  0  0  0  0  0
    5.6096    0.2390   22.2244 H   0  0  0  0  0  0  0  0  0  0  0  0
    3.7604    1.7235   22.7559 H   0  0  0  0  0  0  0  0  0  0  0  0
    2.5775    2.9347   20.9794 H   0  0  0  0  0  0  0  0  0  0  0  0
    3.2502    2.6928   18.6526 H   0  0  0  0  0  0  0  0  0  0  0  0
    4.8015    1.6714   16.9565 H   0  0  0  0  0  0  0  0  0  0  0  0
    7.7833   -0.9446   18.1074 H   0  0  0  0  0  0  0  0  0  0  0  0
    9.3425   -1.8782   22.0196 H   0  0  0  0  0  0  0  0  0  0  0  0
   11.7701   -2.2364   22.2976 H   0  0  0  0  0  0  0  0  0  0  0  0
   13.8995    0.9410   24.2205 H   0  0  0  0  0  0  0  0  0  0  0  0
    9.8526    1.5429   22.9513 H   0  0  0  0  0  0  0  0  0  0  0  0
   13.0094    2.5409   21.8554 H   0  0  0  0  0  0  0  0  0  0  0  0
   14.2093    4.4588   20.8189 H   0  0  0  0  0  0  0  0  0  0  0  0
   14.2887    6.6385   22.0095 H   0  0  0  0  0  0  0  0  0  0  0  0
   12.7294    8.2498   25.9390 H   0  0  0  0  0  0  0  0  0  0  0  0
   11.5178    6.9996   25.4971 H   0  0  0  0  0  0  0  0  0  0  0  0
   13.0563    6.5188   26.2900 H   0  0  0  0  0  0  0  0  0  0  0  0
  1  2  2  0  0  0  0
  2  3  1  0  0  0  0
  2 14  1  0  0  0  0
  3  4  1  0  0  0  0
  3 31  1  0  0  0  0
  3 32  1  0  0  0  0
  4  5  2  0  0  0  0
  4 13  1  0  0  0  0
  5  6  1  0  0  0  0
  5 10  1  0  0  0  0
  6  7  2  0  0  0  0
  6 33  1  0  0  0  0
  7  8  1  0  0  0  0
  7 34  1  0  0  0  0
  8  9  2  0  0  0  0
  8 35  1  0  0  0  0
  9 10  1  0  0  0  0
  9 36  1  0  0  0  0
 10 11  2  0  0  0  0
 11 12  1  0  0  0  0
 11 37  1  0  0  0  0
 12 13  2  0  0  0  0
 13 38  1  0  0  0  0
 14 15  1  0  0  0  0
 14 39  1  0  0  0  0
 15 16  2  0  0  0  0
 15 20  1  0  0  0  0
 16 17  1  0  0  0  0
 16 40  1  0  0  0  0
 17 18  1  0  0  0  0
 17 19  2  0  0  0  0
 19 21  1  0  0  0  0
 19 41  1  0  0  0  0
 20 21  2  0  0  0  0
 20 42  1  0  0  0  0
 21 22  1  0  0  0  0
 22 23  1  0  0  0  0
 23 24  2  0  0  0  0
 23 27  1  0  0  0  0
 24 25  1  0  0  0  0
 24 43  1  0  0  0  0
 25 26  2  0  0  0  0
 25 44  1  0  0  0  0
 26 28  1  0  0  0  0
 26 45  1  0  0  0  0
 27 28  2  0  0  0  0
 28 29  1  0  0  0  0
 29 30  1  0  0  0  0
 30 46  1  0  0  0  0
 30 47  1  0  0  0  0
 30 48  1  0  0  0  0
M  END
> <compound_name>
MAT-POS-6344a35d-1

> <provenance>
{"isomeric_smiles": "COc1cccc(n1)Oc2cc(cc(c2)Cl)NC(=O)Cc3cncc4c3cccc4", "inchi": "InChI=1S/C23H18ClN3O3/c1-29-22-7-4-8-23(27-22)30-19-11-17(24)10-18(12-19)26-21(28)9-16-14-25-13-15-5-2-3-6-20(15)16/h2-8,10-14H,9H2,1H3,(H,26,28)", "inchi_key": "ZJXCDXGMXIYGBJ-UHFFFAOYSA-N", "fixed_inchi": "InChI=1/C23H18ClN3O3/c1-29-22-7-4-8-23(27-22)30-19-11-17(24)10-18(12-19)26-21(28)9-16-14-25-13-15-5-2-3-6-20(15)16/h2-8,10-14H,9H2,1H3,(H,26,28)/f/h26H", "fixed_inchikey": "ZJXCDXGMXIYGBJ-HXTKINSTNA-N"}

> <data_format>
sdf

$$$$
