LIG(A-306)
  -OEChem-06042511393D

 56 60  0     1  0  0  0  0  0999 V2000
   14.0731   -1.5416   21.1865 Cl  0  0  0  0  0  0  0  0  0  0  0  0
   12.9356   -0.8277   22.2941 C   0  0  0  0  0  0  0  0  0  0  0  0
   11.6029   -1.1786   22.2065 C   0  0  0  0  0  0  0  0  0  0  0  0
   13.3746    0.1088   23.1978 C   0  0  0  0  0  0  0  0  0  0  0  0
   12.4580    0.7055   24.0419 C   0  0  0  0  0  0  0  0  0  0  0  0
   11.0993    0.4017   23.9665 C   0  0  0  0  0  0  0  0  0  0  0  0
   10.1510    1.1571   24.8784 C   0  0  0  0  0  0  0  0  0  0  0  0
    8.7373    0.8231   24.6608 N   0  0  3  0  0  0  0  0  0  0  0  0
    7.4721    1.7207   25.0524 S   0  0  0  0  0  0  0  0  0  0  0  0
    7.6462    2.1517   26.3946 O   0  0  0  0  0  0  0  0  0  0  0  0
    6.3066    1.0041   24.6639 O   0  0  0  0  0  0  0  0  0  0  0  0
    7.6167    3.0121   24.1248 N   0  0  0  0  0  0  0  0  0  0  0  0
    7.8437    4.4522   24.4190 C   0  0  0  0  0  0  0  0  0  0  0  0
    7.5311    3.2826   22.6632 C   0  0  0  0  0  0  0  0  0  0  0  0
    7.2652    4.7503   23.0266 C   0  0  0  0  0  0  0  0  0  0  0  0
    5.8475    4.9063   23.0195 O   0  0  0  0  0  0  0  0  0  0  0  0
    5.3292    5.3216   21.7686 C   0  0  0  0  0  0  0  0  0  0  0  0
   10.6673   -0.5437   23.0228 C   0  0  0  0  0  0  0  0  0  0  0  0
    9.1877   -0.8249   22.8595 C   0  0  1  0  0  0  0  0  0  0  0  0
    8.4534   -0.5359   24.1640 C   0  0  0  0  0  0  0  0  0  0  0  0
    8.6472   -0.0318   21.6665 C   0  0  0  0  0  0  0  0  0  0  0  0
    9.2661    0.9124   21.1742 O   0  0  0  0  0  0  0  0  0  0  0  0
    7.4632   -0.4799   21.1774 N   0  0  0  0  0  0  0  0  0  0  0  0
    6.7411   -0.0108   20.0598 C   0  0  0  0  0  0  0  0  0  0  0  0
    5.5587    0.7646   20.2757 C   0  0  0  0  0  0  0  0  0  0  0  0
    5.0083    1.0243   21.5561 C   0  0  0  0  0  0  0  0  0  0  0  0
    3.8980    1.8069   21.6991 C   0  0  0  0  0  0  0  0  0  0  0  0
    3.2770    2.3647   20.5900 C   0  0  0  0  0  0  0  0  0  0  0  0
    3.7544    2.1270   19.3327 C   0  0  0  0  0  0  0  0  0  0  0  0
    4.9007    1.3166   19.1385 C   0  0  0  0  0  0  0  0  0  0  0  0
    5.4390    1.0299   17.8600 C   0  0  0  0  0  0  0  0  0  0  0  0
    6.5195    0.2897   17.6572 N   0  0  0  0  0  0  0  0  0  0  0  0
    7.1445   -0.2030   18.7357 C   0  0  0  0  0  0  0  0  0  0  0  0
   11.2869   -1.9405   21.5095 H   0  0  0  0  0  0  0  0  0  0  0  0
   14.4202    0.3747   23.2477 H   0  0  0  0  0  0  0  0  0  0  0  0
   12.8005    1.4214   24.7744 H   0  0  0  0  0  0  0  0  0  0  0  0
   10.4081    0.9199   25.9213 H   0  0  0  0  0  0  0  0  0  0  0  0
   10.2848    2.2349   24.7037 H   0  0  0  0  0  0  0  0  0  0  0  0
    7.2524    4.8491   25.2574 H   0  0  0  0  0  0  0  0  0  0  0  0
    8.8990    4.7344   24.5487 H   0  0  0  0  0  0  0  0  0  0  0  0
    8.4644    3.1081   22.1078 H   0  0  0  0  0  0  0  0  0  0  0  0
    6.6993    2.7779   22.1500 H   0  0  0  0  0  0  0  0  0  0  0  0
    7.8431    5.4786   22.4385 H   0  0  0  0  0  0  0  0  0  0  0  0
    4.2359    5.4202   21.8386 H   0  0  0  0  0  0  0  0  0  0  0  0
    5.7680    6.2923   21.4941 H   0  0  0  0  0  0  0  0  0  0  0  0
    5.5815    4.5750   21.0011 H   0  0  0  0  0  0  0  0  0  0  0  0
    9.0678   -1.8948   22.6343 H   0  0  0  0  0  0  0  0  0  0  0  0
    8.7727   -1.2663   24.9221 H   0  0  0  0  0  0  0  0  0  0  0  0
    7.3712   -0.6340   23.9931 H   0  0  0  0  0  0  0  0  0  0  0  0
    7.0484   -1.2422   21.6741 H   0  0  0  0  0  0  0  0  0  0  0  0
    5.4741    0.5969   22.4318 H   0  0  0  0  0  0  0  0  0  0  0  0
    3.4991    1.9936   22.6852 H   0  0  0  0  0  0  0  0  0  0  0  0
    2.4083    2.9925   20.7225 H   0  0  0  0  0  0  0  0  0  0  0  0
    3.2541    2.5602   18.4792 H   0  0  0  0  0  0  0  0  0  0  0  0
    4.9374    1.4403   16.9961 H   0  0  0  0  0  0  0  0  0  0  0  0
    8.0313   -0.7962   18.5680 H   0  0  0  0  0  0  0  0  0  0  0  0
  1  2  1  0  0  0  0
  2  3  2  0  0  0  0
  2  4  1  0  0  0  0
  3 18  1  0  0  0  0
  3 34  1  0  0  0  0
  4  5  2  0  0  0  0
  4 35  1  0  0  0  0
  5  6  1  0  0  0  0
  5 36  1  0  0  0  0
  6  7  1  0  0  0  0
  6 18  2  0  0  0  0
  7  8  1  0  0  0  0
  7 37  1  0  0  0  0
  7 38  1  0  0  0  0
  8  9  1  0  0  0  0
  8 20  1  0  0  0  0
  9 10  2  0  0  0  0
  9 11  2  0  0  0  0
  9 12  1  0  0  0  0
 12 13  1  0  0  0  0
 12 14  1  0  0  0  0
 13 15  1  0  0  0  0
 13 39  1  0  0  0  0
 13 40  1  0  0  0  0
 14 15  1  0  0  0  0
 14 41  1  0  0  0  0
 14 42  1  0  0  0  0
 15 16  1  0  0  0  0
 15 43  1  0  0  0  0
 16 17  1  0  0  0  0
 17 44  1  0  0  0  0
 17 45  1  0  0  0  0
 17 46  1  0  0  0  0
 18 19  1  0  0  0  0
 19 20  1  0  0  0  0
 19 21  1  0  0  0  0
 19 47  1  0  0  0  0
 20 48  1  0  0  0  0
 20 49  1  0  0  0  0
 21 22  2  0  0  0  0
 21 23  1  0  0  0  0
 23 24  1  0  0  0  0
 23 50  1  0  0  0  0
 24 25  2  0  0  0  0
 24 33  1  0  0  0  0
 25 26  1  0  0  0  0
 25 30  1  0  0  0  0
 26 27  2  0  0  0  0
 26 51  1  0  0  0  0
 27 28  1  0  0  0  0
 27 52  1  0  0  0  0
 28 29  2  0  0  0  0
 28 53  1  0  0  0  0
 29 30  1  0  0  0  0
 29 54  1  0  0  0  0
 30 31  2  0  0  0  0
 31 32  1  0  0  0  0
 31 55  1  0  0  0  0
 32 33  2  0  0  0  0
 33 56  1  0  0  0  0
M  END
> <compound_name>
EDJ-MED-1981ceba-3

> <provenance>
{"isomeric_smiles": "COC1CN(C1)S(=O)(=O)N2Cc3ccc(cc3[C@@H](C2)C(=O)Nc4cncc5c4cccc5)Cl", "inchi": "InChI=1S/C23H23ClN4O4S/c1-32-18-12-28(13-18)33(30,31)27-11-16-6-7-17(24)8-20(16)21(14-27)23(29)26-22-10-25-9-15-4-2-3-5-19(15)22/h2-10,18,21H,11-14H2,1H3,(H,26,29)/t21-/m1/s1", "inchi_key": "BOBUOSCSQDEHLU-OAQYLSRUSA-N", "fixed_inchi": "InChI=1/C23H23ClN4O4S/c1-32-18-12-28(13-18)33(30,31)27-11-16-6-7-17(24)8-20(16)21(14-27)23(29)26-22-10-25-9-15-4-2-3-5-19(15)22/h2-10,18,21H,11-14H2,1H3,(H,26,29)/t21-/m1/s1/f/h26H", "fixed_inchikey": "BOBUOSCSQDEHLU-GECCEJMXNA-N"}

> <data_format>
sdf

$$$$
