LIG(A-305)
  -OEChem-06042511373D

 38 41  0     1  0  0  0  0  0999 V2000
    9.5427    0.6082   21.0446 O   0  0  0  0  0  0  0  0  0  0  0  0
    8.8387   -0.2249   21.6095 C   0  0  0  0  0  0  0  0  0  0  0  0
    9.3736   -1.1089   22.7396 C   0  0  2  0  0  0  0  0  0  0  0  0
    8.6725   -0.8519   24.0905 C   0  0  0  0  0  0  0  0  0  0  0  0
    9.0904    0.4851   24.6486 C   0  0  0  0  0  0  0  0  0  0  0  0
   10.5134    0.5772   24.8447 O   0  0  0  0  0  0  0  0  0  0  0  0
   12.5865    0.6403   23.7749 C   0  0  0  0  0  0  0  0  0  0  0  0
   11.2865    0.1572   23.7908 C   0  0  0  0  0  0  0  0  0  0  0  0
   10.8496   -0.7848   22.8567 C   0  0  0  0  0  0  0  0  0  0  0  0
   11.7807   -1.3047   21.9628 C   0  0  0  0  0  0  0  0  0  0  0  0
   13.4836    0.1483   22.8460 C   0  0  0  0  0  0  0  0  0  0  0  0
   13.0747   -0.8327   21.9719 C   0  0  0  0  0  0  0  0  0  0  0  0
   14.2288   -1.5316   20.8860 Cl  0  0  0  0  0  0  0  0  0  0  0  0
    7.5227   -0.3689   21.3514 N   0  0  0  0  0  0  0  0  0  0  0  0
    6.8018   -0.1029   20.1744 C   0  0  0  0  0  0  0  0  0  0  0  0
    7.3179   -0.1679   18.8824 C   0  0  0  0  0  0  0  0  0  0  0  0
    5.5690    0.9450   17.9433 C   0  0  0  0  0  0  0  0  0  0  0  0
    4.9209    1.1130   19.1892 C   0  0  0  0  0  0  0  0  0  0  0  0
    6.7260    0.3211   17.7874 N   0  0  0  0  0  0  0  0  0  0  0  0
    3.7318    1.8529   19.3941 C   0  0  0  0  0  0  0  0  0  0  0  0
    3.7586    1.4769   21.6451 C   0  0  0  0  0  0  0  0  0  0  0  0
    4.9106    0.7499   21.5862 C   0  0  0  0  0  0  0  0  0  0  0  0
    3.1627    2.0319   20.5811 N   0  0  0  0  0  0  0  0  0  0  0  0
    5.5408    0.5490   20.3352 C   0  0  0  0  0  0  0  0  0  0  0  0
    9.2500   -2.1666   22.4639 H   0  0  0  0  0  0  0  0  0  0  0  0
    7.5827   -0.8587   23.9413 H   0  0  0  0  0  0  0  0  0  0  0  0
    8.9503   -1.6448   24.8005 H   0  0  0  0  0  0  0  0  0  0  0  0
    8.7786    1.2735   23.9477 H   0  0  0  0  0  0  0  0  0  0  0  0
    8.5899    0.6359   25.6164 H   0  0  0  0  0  0  0  0  0  0  0  0
   12.8952    1.3950   24.4830 H   0  0  0  0  0  0  0  0  0  0  0  0
   11.4899   -2.0755   21.2645 H   0  0  0  0  0  0  0  0  0  0  0  0
   14.4933    0.5292   22.8065 H   0  0  0  0  0  0  0  0  0  0  0  0
    6.9770   -0.7180   22.1132 H   0  0  0  0  0  0  0  0  0  0  0  0
    8.2744   -0.6528   18.7544 H   0  0  0  0  0  0  0  0  0  0  0  0
    5.0901    1.3511   17.0645 H   0  0  0  0  0  0  0  0  0  0  0  0
    3.2581    2.2995   18.5325 H   0  0  0  0  0  0  0  0  0  0  0  0
    3.2967    1.6141   22.6117 H   0  0  0  0  0  0  0  0  0  0  0  0
    5.3381    0.3316   22.4855 H   0  0  0  0  0  0  0  0  0  0  0  0
  1  2  2  0  0  0  0
  2  3  1  0  0  0  0
  2 14  1  0  0  0  0
  3  4  1  0  0  0  0
  3  9  1  0  0  0  0
  3 25  1  0  0  0  0
  4  5  1  0  0  0  0
  4 26  1  0  0  0  0
  4 27  1  0  0  0  0
  5  6  1  0  0  0  0
  5 28  1  0  0  0  0
  5 29  1  0  0  0  0
  6  8  1  0  0  0  0
  7  8  2  0  0  0  0
  7 11  1  0  0  0  0
  7 30  1  0  0  0  0
  8  9  1  0  0  0  0
  9 10  2  0  0  0  0
 10 12  1  0  0  0  0
 10 31  1  0  0  0  0
 11 12  2  0  0  0  0
 11 32  1  0  0  0  0
 12 13  1  0  0  0  0
 14 15  1  0  0  0  0
 14 33  1  0  0  0  0
 15 16  2  0  0  0  0
 15 24  1  0  0  0  0
 16 19  1  0  0  0  0
 16 34  1  0  0  0  0
 17 18  1  0  0  0  0
 17 19  2  0  0  0  0
 17 35  1  0  0  0  0
 18 20  2  0  0  0  0
 18 24  1  0  0  0  0
 20 23  1  0  0  0  0
 20 36  1  0  0  0  0
 21 22  1  0  0  0  0
 21 23  2  0  0  0  0
 21 37  1  0  0  0  0
 22 24  2  0  0  0  0
 22 38  1  0  0  0  0
M  END
> <compound_name>
ALP-POS-ce760d3f-2

> <provenance>
{"isomeric_smiles": "c1cc2c(cc1Cl)[C@@H](CCO2)C(=O)Nc3cncc4c3ccnc4", "inchi": "InChI=1S/C18H14ClN3O2/c19-12-1-2-17-15(7-12)14(4-6-24-17)18(23)22-16-10-21-9-11-8-20-5-3-13(11)16/h1-3,5,7-10,14H,4,6H2,(H,22,23)/t14-/m1/s1", "inchi_key": "KCXBRLJFVUQUIR-CQSZACIVSA-N", "fixed_inchi": "InChI=1/C18H14ClN3O2/c19-12-1-2-17-15(7-12)14(4-6-24-17)18(23)22-16-10-21-9-11-8-20-5-3-13(11)16/h1-3,5,7-10,14H,4,6H2,(H,22,23)/t14-/m1/s1/f/h22H", "fixed_inchikey": "KCXBRLJFVUQUIR-CIFLUQPANA-N"}

> <data_format>
sdf

$$$$
