LIG(A-306)
  -OEChem-06042511393D

 42 46  0     1  0  0  0  0  0999 V2000
    9.2141    1.3725   21.1402 O   0  0  0  0  0  0  0  0  0  0  0  0
    8.7626    0.3242   21.5644 C   0  0  0  0  0  0  0  0  0  0  0  0
    9.2038   -0.4087   22.8362 C   0  0  2  0  0  0  0  0  0  0  0  0
    8.5029    0.2982   24.0247 C   0  0  0  0  0  0  0  0  0  0  0  0
    9.4669    0.6912   25.1281 C   0  0  0  0  0  0  0  0  0  0  0  0
   10.6274    1.3614   24.6099 O   0  0  0  0  0  0  0  0  0  0  0  0
   10.7359   -0.3804   22.9317 C   0  0  0  0  0  0  0  0  0  0  0  0
   11.3496    0.5451   23.7786 C   0  0  0  0  0  0  0  0  0  0  0  0
   12.7267    0.6564   23.8661 C   0  0  0  0  0  0  0  0  0  0  0  0
   13.5200   -0.1549   23.0767 C   0  0  0  0  0  0  0  0  0  0  0  0
   11.5483   -1.2056   22.1533 C   0  0  0  0  0  0  0  0  0  0  0  0
   12.9233   -1.0424   22.2047 C   0  0  0  0  0  0  0  0  0  0  0  0
   13.9082   -1.8173   20.9931 Cl  0  0  0  0  0  0  0  0  0  0  0  0
    7.7351   -0.4239   20.9756 N   0  0  0  0  0  0  0  0  0  0  0  0
    7.5408   -1.6559   21.5958 C   0  0  0  0  0  0  0  0  0  0  0  0
    6.6266   -2.4214   21.3270 O   0  0  0  0  0  0  0  0  0  0  0  0
    8.6158   -1.8221   22.6391 C   0  0  0  0  0  0  0  0  0  0  0  0
    6.9170    0.0572   19.8926 C   0  0  0  0  0  0  0  0  0  0  0  0
    5.8192    0.9106   20.1802 C   0  0  0  0  0  0  0  0  0  0  0  0
    5.3764    1.2418   21.4890 C   0  0  0  0  0  0  0  0  0  0  0  0
    4.3075    2.0720   21.6787 C   0  0  0  0  0  0  0  0  0  0  0  0
    3.6305    2.6151   20.5944 C   0  0  0  0  0  0  0  0  0  0  0  0
    4.0203    2.3300   19.3185 C   0  0  0  0  0  0  0  0  0  0  0  0
    5.1191    1.4697   19.0749 C   0  0  0  0  0  0  0  0  0  0  0  0
    5.5729    1.1376   17.7730 C   0  0  0  0  0  0  0  0  0  0  0  0
    6.6018    0.3373   17.5194 N   0  0  0  0  0  0  0  0  0  0  0  0
    7.2518   -0.1889   18.5676 C   0  0  0  0  0  0  0  0  0  0  0  0
    8.0081    1.2067   23.6506 H   0  0  0  0  0  0  0  0  0  0  0  0
    7.7486   -0.3840   24.4437 H   0  0  0  0  0  0  0  0  0  0  0  0
    8.9507    1.3637   25.8290 H   0  0  0  0  0  0  0  0  0  0  0  0
    9.7880   -0.2165   25.6601 H   0  0  0  0  0  0  0  0  0  0  0  0
   13.1757    1.3683   24.5429 H   0  0  0  0  0  0  0  0  0  0  0  0
   14.5964   -0.0947   23.1418 H   0  0  0  0  0  0  0  0  0  0  0  0
   11.1108   -1.9621   21.5187 H   0  0  0  0  0  0  0  0  0  0  0  0
    8.1866   -2.1968   23.5800 H   0  0  0  0  0  0  0  0  0  0  0  0
    9.3916   -2.5179   22.2872 H   0  0  0  0  0  0  0  0  0  0  0  0
    5.8914    0.8319   22.3453 H   0  0  0  0  0  0  0  0  0  0  0  0
    3.9860    2.3082   22.6823 H   0  0  0  0  0  0  0  0  0  0  0  0
    2.7877    3.2691   20.7629 H   0  0  0  0  0  0  0  0  0  0  0  0
    3.4862    2.7643   18.4863 H   0  0  0  0  0  0  0  0  0  0  0  0
    5.0467    1.5640   16.9318 H   0  0  0  0  0  0  0  0  0  0  0  0
    8.0869   -0.8444   18.3692 H   0  0  0  0  0  0  0  0  0  0  0  0
  1  2  2  0  0  0  0
  2  3  1  0  0  0  0
  2 14  1  0  0  0  0
  3  4  1  0  0  0  0
  3  7  1  0  0  0  0
  3 17  1  0  0  0  0
  4  5  1  0  0  0  0
  4 28  1  0  0  0  0
  4 29  1  0  0  0  0
  5  6  1  0  0  0  0
  5 30  1  0  0  0  0
  5 31  1  0  0  0  0
  6  8  1  0  0  0  0
  7  8  2  0  0  0  0
  7 11  1  0  0  0  0
  8  9  1  0  0  0  0
  9 10  2  0  0  0  0
  9 32  1  0  0  0  0
 10 12  1  0  0  0  0
 10 33  1  0  0  0  0
 11 12  2  0  0  0  0
 11 34  1  0  0  0  0
 12 13  1  0  0  0  0
 14 15  1  0  0  0  0
 14 18  1  0  0  0  0
 15 16  2  0  0  0  0
 15 17  1  0  0  0  0
 17 35  1  0  0  0  0
 17 36  1  0  0  0  0
 18 19  2  0  0  0  0
 18 27  1  0  0  0  0
 19 20  1  0  0  0  0
 19 24  1  0  0  0  0
 20 21  2  0  0  0  0
 20 37  1  0  0  0  0
 21 22  1  0  0  0  0
 21 38  1  0  0  0  0
 22 23  2  0  0  0  0
 22 39  1  0  0  0  0
 23 24  1  0  0  0  0
 23 40  1  0  0  0  0
 24 25  2  0  0  0  0
 25 26  1  0  0  0  0
 25 41  1  0  0  0  0
 26 27  2  0  0  0  0
 27 42  1  0  0  0  0
M  END
> <compound_name>
BEN-BAS-c2bc0d80-6

> <provenance>
{"isomeric_smiles": "c1ccc2c(c1)cncc2N3C(=O)C[C@@]4(C3=O)CCOc5c4cc(cc5)Cl", "inchi": "InChI=1S/C21H15ClN2O3/c22-14-5-6-18-16(9-14)21(7-8-27-18)10-19(25)24(20(21)26)17-12-23-11-13-3-1-2-4-15(13)17/h1-6,9,11-12H,7-8,10H2/t21-/m0/s1", "inchi_key": "QOLVOMOIQPMUFC-NRFANRHFSA-N", "fixed_inchi": "InChI=1/C21H15ClN2O3/c22-14-5-6-18-16(9-14)21(7-8-27-18)10-19(25)24(20(21)26)17-12-23-11-13-3-1-2-4-15(13)17/h1-6,9,11-12H,7-8,10H2/t21-/m0/s1", "fixed_inchikey": "QOLVOMOIQPMUFC-NRFANRHFNA-N"}

> <data_format>
sdf

$$$$
