LIG(A-305)
  -OEChem-06042511353D

 27 28  0     0  0  0  0  0  0999 V2000
    8.8819    0.8741   20.7145 O   0  0  0  0  0  0  0  0  0  0  0  0
    8.4488   -0.1929   21.1415 C   0  0  0  0  0  0  0  0  0  0  0  0
    9.1407   -0.9240   22.0944 N   0  0  0  0  0  0  0  0  0  0  0  0
   10.3568   -0.4602   22.5874 C   0  0  0  0  0  0  0  0  0  0  0  0
   11.2658   -1.1943   23.2893 C   0  0  0  0  0  0  0  0  0  0  0  0
   12.4439   -0.4685   23.5713 C   0  0  0  0  0  0  0  0  0  0  0  0
   10.9420    1.1417   22.2974 S   0  0  0  0  0  0  0  0  0  0  0  0
   12.4360    0.8045   23.0903 C   0  0  0  0  0  0  0  0  0  0  0  0
   13.5231    1.8274   23.1213 C   0  0  0  0  0  0  0  0  0  0  0  0
    7.2627   -0.7257   20.7375 N   0  0  0  0  0  0  0  0  0  0  0  0
    6.3847   -0.0956   19.8326 C   0  0  0  0  0  0  0  0  0  0  0  0
    6.7087   -0.0016   18.4796 C   0  0  0  0  0  0  0  0  0  0  0  0
    5.9977    0.7165   17.6026 N   0  0  0  0  0  0  0  0  0  0  0  0
    4.9308    1.3777   18.0677 C   0  0  0  0  0  0  0  0  0  0  0  0
    4.5189    1.3337   19.3857 C   0  0  0  0  0  0  0  0  0  0  0  0
    5.2538    0.5755   20.2796 C   0  0  0  0  0  0  0  0  0  0  0  0
    8.7646   -1.7881   22.4290 H   0  0  0  0  0  0  0  0  0  0  0  0
   11.1031   -2.2171   23.5957 H   0  0  0  0  0  0  0  0  0  0  0  0
   13.2758   -0.8859   24.1190 H   0  0  0  0  0  0  0  0  0  0  0  0
   14.4023    1.4453   22.5818 H   0  0  0  0  0  0  0  0  0  0  0  0
   13.1708    2.7515   22.6399 H   0  0  0  0  0  0  0  0  0  0  0  0
   13.7974    2.0393   24.1653 H   0  0  0  0  0  0  0  0  0  0  0  0
    6.9986   -1.6175   21.1048 H   0  0  0  0  0  0  0  0  0  0  0  0
    7.5768   -0.5351   18.1216 H   0  0  0  0  0  0  0  0  0  0  0  0
    4.3607    1.9785   17.3745 H   0  0  0  0  0  0  0  0  0  0  0  0
    3.6444    1.8779   19.7103 H   0  0  0  0  0  0  0  0  0  0  0  0
    4.9515    0.5064   21.3142 H   0  0  0  0  0  0  0  0  0  0  0  0
  1  2  2  0  0  0  0
  2  3  1  0  0  0  0
  2 10  1  0  0  0  0
  3  4  1  0  0  0  0
  3 17  1  0  0  0  0
  4  5  2  0  0  0  0
  4  7  1  0  0  0  0
  5  6  1  0  0  0  0
  5 18  1  0  0  0  0
  6  8  2  0  0  0  0
  6 19  1  0  0  0  0
  7  8  1  0  0  0  0
  8  9  1  0  0  0  0
  9 20  1  0  0  0  0
  9 21  1  0  0  0  0
  9 22  1  0  0  0  0
 10 11  1  0  0  0  0
 10 23  1  0  0  0  0
 11 12  2  0  0  0  0
 11 16  1  0  0  0  0
 12 13  1  0  0  0  0
 12 24  1  0  0  0  0
 13 14  2  0  0  0  0
 14 15  1  0  0  0  0
 14 25  1  0  0  0  0
 15 16  2  0  0  0  0
 15 26  1  0  0  0  0
 16 27  1  0  0  0  0
M  END
> <compound_name>
DAR-DIA-842b4336-3

> <provenance>
{"isomeric_smiles": "Cc1ccc(s1)NC(=O)Nc2cccnc2", "inchi": "InChI=1S/C11H11N3OS/c1-8-4-5-10(16-8)14-11(15)13-9-3-2-6-12-7-9/h2-7H,1H3,(H2,13,14,15)", "inchi_key": "OCXJDZBTSLHCNX-UHFFFAOYSA-N", "fixed_inchi": "InChI=1/C11H11N3OS/c1-8-4-5-10(16-8)14-11(15)13-9-3-2-6-12-7-9/h2-7H,1H3,(H2,13,14,15)/f/h13-14H", "fixed_inchikey": "OCXJDZBTSLHCNX-KGCNKATMNA-N"}

> <data_format>
sdf

$$$$
