LIG(A-305)
  -OEChem-06042511303D

 37 39  0     1  0  0  0  0  0999 V2000
    6.4821    0.4941   17.6406 N   0  0  0  0  0  0  0  0  0  0  0  0
    5.6361    0.7959   20.2897 C   0  0  0  0  0  0  0  0  0  0  0  0
   12.4512    0.5924   24.0206 C   0  0  0  0  0  0  0  0  0  0  0  0
    9.3252    1.0657   21.3077 O   0  0  0  0  0  0  0  0  0  0  0  0
    8.3042   -0.1635   24.0896 C   0  0  0  0  0  0  0  0  0  0  0  0
    4.9461    1.3900   19.2427 C   0  0  0  0  0  0  0  0  0  0  0  0
    8.7021    0.0657   21.6436 C   0  0  0  0  0  0  0  0  0  0  0  0
    6.7871    0.0579   19.9816 C   0  0  0  0  0  0  0  0  0  0  0  0
    7.1281   -0.1040   18.6426 C   0  0  0  0  0  0  0  0  0  0  0  0
   11.0952    0.3034   23.9736 C   0  0  0  0  0  0  0  0  0  0  0  0
   12.8091   -0.9355   22.2304 C   0  0  0  0  0  0  0  0  0  0  0  0
    8.9392    1.1304   24.5287 C   0  0  0  0  0  0  0  0  0  0  0  0
   13.3121   -0.0175   23.1265 C   0  0  0  0  0  0  0  0  0  0  0  0
   11.4661   -1.2434   22.1824 C   0  0  0  0  0  0  0  0  0  0  0  0
    5.0832    0.8598   21.6927 C   0  0  0  0  0  0  0  0  0  0  0  0
    7.6981   -0.4302   20.9185 N   0  0  0  0  0  0  0  0  0  0  0  0
    5.7842    1.7857   22.5098 O   0  0  0  0  0  0  0  0  0  0  0  0
   10.3162    0.9374   24.9116 O   0  0  0  0  0  0  0  0  0  0  0  0
    9.0731   -0.7484   22.8835 C   0  0  1  0  0  0  0  0  0  0  0  0
    5.4131    1.2321   17.9527 C   0  0  0  0  0  0  0  0  0  0  0  0
   10.5751   -0.5965   23.0385 C   0  0  0  0  0  0  0  0  0  0  0  0
   13.8991   -1.7364   21.1314 Cl  0  0  0  0  0  0  0  0  0  0  0  0
   12.8325    1.2900   24.7515 H   0  0  0  0  0  0  0  0  0  0  0  0
    8.3303   -0.8827   24.9215 H   0  0  0  0  0  0  0  0  0  0  0  0
    7.2598    0.0235   23.7994 H   0  0  0  0  0  0  0  0  0  0  0  0
    4.0548    1.9689   19.4343 H   0  0  0  0  0  0  0  0  0  0  0  0
    7.9605   -0.7485   18.4015 H   0  0  0  0  0  0  0  0  0  0  0  0
    8.8963    1.8502   23.6979 H   0  0  0  0  0  0  0  0  0  0  0  0
    8.3811    1.5293   25.3886 H   0  0  0  0  0  0  0  0  0  0  0  0
   14.3652    0.2225   23.1306 H   0  0  0  0  0  0  0  0  0  0  0  0
   11.1050   -1.9836   21.4838 H   0  0  0  0  0  0  0  0  0  0  0  0
    4.0268    1.1623   21.6425 H   0  0  0  0  0  0  0  0  0  0  0  0
    5.1572   -0.1392   22.1473 H   0  0  0  0  0  0  0  0  0  0  0  0
    7.5635   -1.4058   21.0918 H   0  0  0  0  0  0  0  0  0  0  0  0
    5.6366    2.6674   22.1884 H   0  0  0  0  0  0  0  0  0  0  0  0
    8.8055   -1.8058   22.7409 H   0  0  0  0  0  0  0  0  0  0  0  0
    4.8860    1.7319   17.1535 H   0  0  0  0  0  0  0  0  0  0  0  0
  1  9  1  0  0  0  0
  1 20  2  0  0  0  0
  2  6  2  0  0  0  0
  2  8  1  0  0  0  0
  2 15  1  0  0  0  0
  3 10  2  0  0  0  0
  3 13  1  0  0  0  0
  3 23  1  0  0  0  0
  4  7  2  0  0  0  0
  5 12  1  0  0  0  0
  5 19  1  0  0  0  0
  5 24  1  0  0  0  0
  5 25  1  0  0  0  0
  6 20  1  0  0  0  0
  6 26  1  0  0  0  0
  7 16  1  0  0  0  0
  7 19  1  0  0  0  0
  8  9  2  0  0  0  0
  8 16  1  0  0  0  0
  9 27  1  0  0  0  0
 10 18  1  0  0  0  0
 10 21  1  0  0  0  0
 11 13  2  0  0  0  0
 11 14  1  0  0  0  0
 11 22  1  0  0  0  0
 12 18  1  0  0  0  0
 12 28  1  0  0  0  0
 12 29  1  0  0  0  0
 13 30  1  0  0  0  0
 14 21  2  0  0  0  0
 14 31  1  0  0  0  0
 15 17  1  0  0  0  0
 15 32  1  0  0  0  0
 15 33  1  0  0  0  0
 16 34  1  0  0  0  0
 17 35  1  0  0  0  0
 19 21  1  0  0  0  0
 19 36  1  0  0  0  0
 20 37  1  0  0  0  0
M  END
> <compound_name>
LON-WEI-0a73fcb8-7

> <provenance>
{"isomeric_smiles": "c1cc2c(cc1Cl)[C@@H](CCO2)C(=O)Nc3cnccc3CO", "inchi": "InChI=1S/C16H15ClN2O3/c17-11-1-2-15-13(7-11)12(4-6-22-15)16(21)19-14-8-18-5-3-10(14)9-20/h1-3,5,7-8,12,20H,4,6,9H2,(H,19,21)/t12-/m1/s1", "inchi_key": "XLONNNGKPLHXDC-GFCCVEGCSA-N", "fixed_inchi": "InChI=1/C16H15ClN2O3/c17-11-1-2-15-13(7-11)12(4-6-22-15)16(21)19-14-8-18-5-3-10(14)9-20/h1-3,5,7-8,12,20H,4,6,9H2,(H,19,21)/t12-/m1/s1/f/h19H", "fixed_inchikey": "XLONNNGKPLHXDC-NMUGNXQVNA-N"}

> <data_format>
sdf

$$$$
