LIG(A-306)
  -OEChem-06042511413D

 62 67  0     1  0  0  0  0  0999 V2000
    9.3093    1.1464   20.9472 O   0  0  0  0  0  0  0  0  0  0  0  0
    8.8014    0.1864   21.5122 C   0  0  0  0  0  0  0  0  0  0  0  0
    7.6264   -0.3477   21.1083 N   0  0  0  0  0  0  0  0  0  0  0  0
    6.8763    0.1042   20.0034 C   0  0  0  0  0  0  0  0  0  0  0  0
    5.7122    0.9001   20.2415 C   0  0  0  0  0  0  0  0  0  0  0  0
    5.2293    1.2260   21.5355 C   0  0  0  0  0  0  0  0  0  0  0  0
    4.1242    2.0149   21.6936 C   0  0  0  0  0  0  0  0  0  0  0  0
    3.4421    2.5099   20.5897 C   0  0  0  0  0  0  0  0  0  0  0  0
    3.8690    2.2239   19.3257 C   0  0  0  0  0  0  0  0  0  0  0  0
    5.0101    1.4121   19.1156 C   0  0  0  0  0  0  0  0  0  0  0  0
    5.5080    1.0961   17.8265 C   0  0  0  0  0  0  0  0  0  0  0  0
    6.5841    0.3512   17.6054 N   0  0  0  0  0  0  0  0  0  0  0  0
    7.2422   -0.1187   18.6744 C   0  0  0  0  0  0  0  0  0  0  0  0
    9.4486   -0.4266   22.7682 C   0  0  1  0  0  0  0  0  0  0  0  0
   10.9485   -0.1004   22.7271 C   0  0  0  0  0  0  0  0  0  0  0  0
   11.8146   -0.8703   21.9540 C   0  0  0  0  0  0  0  0  0  0  0  0
   13.1545   -0.5402   21.8969 C   0  0  0  0  0  0  0  0  0  0  0  0
   14.2045   -1.4631   20.8558 Cl  0  0  0  0  0  0  0  0  0  0  0  0
   13.6735    0.5248   22.6028 C   0  0  0  0  0  0  0  0  0  0  0  0
   12.8335    1.2838   23.3989 C   0  0  0  0  0  0  0  0  0  0  0  0
   11.4875    0.9636   23.4640 C   0  0  0  0  0  0  0  0  0  0  0  0
   10.7505    1.6945   24.3641 O   0  0  0  0  0  0  0  0  0  0  0  0
    9.3245    1.7064   24.1292 C   0  0  0  0  0  0  0  0  0  0  0  0
    8.7656    0.3133   23.9412 C   0  0  0  0  0  0  0  0  0  0  0  0
    9.2637   -1.9586   22.8732 C   0  0  0  0  0  0  0  0  0  0  0  0
    9.8039   -2.5696   24.1511 C   0  0  0  0  0  0  0  0  0  0  0  0
   10.5209   -1.9395   24.9171 O   0  0  0  0  0  0  0  0  0  0  0  0
    9.4910   -3.8486   24.4501 N   0  0  0  0  0  0  0  0  0  0  0  0
   10.3422   -4.6555   25.3300 C   0  0  0  0  0  0  0  0  0  0  0  0
    9.7123   -4.7536   26.7031 C   0  0  0  0  0  0  0  0  0  0  0  0
    8.3053   -5.1368   26.5402 N   0  0  0  0  0  0  0  0  0  0  0  0
    7.6092   -5.0438   25.3852 C   0  0  0  0  0  0  0  0  0  0  0  0
    8.2131   -4.4937   24.1152 C   0  0  2  0  0  0  0  0  0  0  0  0
    8.3751   -5.6077   23.0912 C   0  0  0  0  0  0  0  0  0  0  0  0
    6.3873   -5.4979   25.5533 N   0  0  0  0  0  0  0  0  0  0  0  0
    6.2825   -5.9030   26.8843 N   0  0  0  0  0  0  0  0  0  0  0  0
    7.4425   -5.6729   27.4382 C   0  0  0  0  0  0  0  0  0  0  0  0
    7.2635   -1.1190   21.6311 H   0  0  0  0  0  0  0  0  0  0  0  0
    5.7416    0.8458   22.4069 H   0  0  0  0  0  0  0  0  0  0  0  0
    3.7778    2.2560   22.6878 H   0  0  0  0  0  0  0  0  0  0  0  0
    2.5668    3.1260   20.7329 H   0  0  0  0  0  0  0  0  0  0  0  0
    3.3314    2.6207   18.4771 H   0  0  0  0  0  0  0  0  0  0  0  0
    4.9782    1.4863   16.9701 H   0  0  0  0  0  0  0  0  0  0  0  0
    8.1237   -0.7160   18.4938 H   0  0  0  0  0  0  0  0  0  0  0  0
   11.4405   -1.7203   21.4026 H   0  0  0  0  0  0  0  0  0  0  0  0
   14.7244    0.7642   22.5352 H   0  0  0  0  0  0  0  0  0  0  0  0
   13.2236    2.1174   23.9639 H   0  0  0  0  0  0  0  0  0  0  0  0
    8.8271    2.1744   24.9916 H   0  0  0  0  0  0  0  0  0  0  0  0
    9.1193    2.2958   23.2233 H   0  0  0  0  0  0  0  0  0  0  0  0
    8.9245   -0.2617   24.8654 H   0  0  0  0  0  0  0  0  0  0  0  0
    7.6874    0.3870   23.7360 H   0  0  0  0  0  0  0  0  0  0  0  0
    8.1879   -2.1799   22.8142 H   0  0  0  0  0  0  0  0  0  0  0  0
    9.7814   -2.4264   22.0228 H   0  0  0  0  0  0  0  0  0  0  0  0
   10.4531   -5.6645   24.9061 H   0  0  0  0  0  0  0  0  0  0  0  0
   11.3318   -4.1827   25.4150 H   0  0  0  0  0  0  0  0  0  0  0  0
   10.2378   -5.5139   27.2995 H   0  0  0  0  0  0  0  0  0  0  0  0
    9.7760   -3.7802   27.2115 H   0  0  0  0  0  0  0  0  0  0  0  0
    7.5281   -3.7392   23.7011 H   0  0  0  0  0  0  0  0  0  0  0  0
    8.8153   -5.1984   22.1699 H   0  0  0  0  0  0  0  0  0  0  0  0
    9.0362   -6.3867   23.4986 H   0  0  0  0  0  0  0  0  0  0  0  0
    7.3908   -6.0436   22.8649 H   0  0  0  0  0  0  0  0  0  0  0  0
    7.6818   -5.8812   28.4706 H   0  0  0  0  0  0  0  0  0  0  0  0
  1  2  2  0  0  0  0
  2  3  1  0  0  0  0
  2 14  1  0  0  0  0
  3  4  1  0  0  0  0
  3 38  1  0  0  0  0
  4  5  2  0  0  0  0
  4 13  1  0  0  0  0
  5  6  1  0  0  0  0
  5 10  1  0  0  0  0
  6  7  2  0  0  0  0
  6 39  1  0  0  0  0
  7  8  1  0  0  0  0
  7 40  1  0  0  0  0
  8  9  2  0  0  0  0
  8 41  1  0  0  0  0
  9 10  1  0  0  0  0
  9 42  1  0  0  0  0
 10 11  2  0  0  0  0
 11 12  1  0  0  0  0
 11 43  1  0  0  0  0
 12 13  2  0  0  0  0
 13 44  1  0  0  0  0
 14 15  1  0  0  0  0
 14 24  1  0  0  0  0
 14 25  1  0  0  0  0
 15 16  2  0  0  0  0
 15 21  1  0  0  0  0
 16 17  1  0  0  0  0
 16 45  1  0  0  0  0
 17 18  1  0  0  0  0
 17 19  2  0  0  0  0
 19 20  1  0  0  0  0
 19 46  1  0  0  0  0
 20 21  2  0  0  0  0
 20 47  1  0  0  0  0
 21 22  1  0  0  0  0
 22 23  1  0  0  0  0
 23 24  1  0  0  0  0
 23 48  1  0  0  0  0
 23 49  1  0  0  0  0
 24 50  1  0  0  0  0
 24 51  1  0  0  0  0
 25 26  1  0  0  0  0
 25 52  1  0  0  0  0
 25 53  1  0  0  0  0
 26 27  2  0  0  0  0
 26 28  1  0  0  0  0
 28 29  1  0  0  0  0
 28 33  1  0  0  0  0
 29 30  1  0  0  0  0
 29 54  1  0  0  0  0
 29 55  1  0  0  0  0
 30 31  1  0  0  0  0
 30 56  1  0  0  0  0
 30 57  1  0  0  0  0
 31 32  1  0  0  0  0
 31 37  1  0  0  0  0
 32 33  1  0  0  0  0
 32 35  2  0  0  0  0
 33 34  1  0  0  0  0
 33 58  1  0  0  0  0
 34 59  1  0  0  0  0
 34 60  1  0  0  0  0
 34 61  1  0  0  0  0
 35 36  1  0  0  0  0
 36 37  2  0  0  0  0
 37 62  1  0  0  0  0
M  END
> <compound_name>
EDG-MED-ba1ac7b9-19

> <provenance>
{"isomeric_smiles": "C[C@H]1c2nncn2CCN1C(=O)C[C@]3(CCOc4c3cc(cc4)Cl)C(=O)Nc5cncc6c5cccc6", "inchi": "InChI=1S/C27H25ClN6O3/c1-17-25-32-30-16-33(25)9-10-34(17)24(35)13-27(8-11-37-23-7-6-19(28)12-21(23)27)26(36)31-22-15-29-14-18-4-2-3-5-20(18)22/h2-7,12,14-17H,8-11,13H2,1H3,(H,31,36)/t17-,27-/m0/s1", "inchi_key": "MQGPZHKWCMCBLI-SOKVYYICSA-N", "fixed_inchi": "InChI=1/C27H25ClN6O3/c1-17-25-32-30-16-33(25)9-10-34(17)24(35)13-27(8-11-37-23-7-6-19(28)12-21(23)27)26(36)31-22-15-29-14-18-4-2-3-5-20(18)22/h2-7,12,14-17H,8-11,13H2,1H3,(H,31,36)/t17-,27-/m0/s1/f/h31H", "fixed_inchikey": "MQGPZHKWCMCBLI-RCUVWRNBNA-N"}

> <data_format>
sdf

$$$$
