LIG(A-305)
  -OEChem-06042511373D

 39 42  0     1  0  0  0  0  0999 V2000
   13.7311   -2.0192   21.0653 Cl  0  0  0  0  0  0  0  0  0  0  0  0
   12.7804   -0.8841   21.9844 C   0  0  0  0  0  0  0  0  0  0  0  0
   13.4186    0.1458   22.6453 C   0  0  0  0  0  0  0  0  0  0  0  0
   12.6758    1.0019   23.4394 C   0  0  0  0  0  0  0  0  0  0  0  0
   11.4164   -1.0719   22.0776 C   0  0  0  0  0  0  0  0  0  0  0  0
   10.6576   -0.2198   22.8777 C   0  0  0  0  0  0  0  0  0  0  0  0
   11.3078    0.8051   23.5566 C   0  0  0  0  0  0  0  0  0  0  0  0
   10.6380    1.6191   24.4277 O   0  0  0  0  0  0  0  0  0  0  0  0
    9.7120    0.8773   25.2388 C   0  0  0  0  0  0  0  0  0  0  0  0
    8.6308    0.1854   24.4379 C   0  0  0  0  0  0  0  0  0  0  0  0
    9.1596   -0.3656   23.0688 C   0  0  1  0  0  0  0  0  0  0  0  0
    8.3985    0.2875   21.9139 C   0  0  0  0  0  0  0  0  0  0  0  0
    8.9306    1.0824   21.1409 O   0  0  0  0  0  0  0  0  0  0  0  0
    7.0765   -0.0433   21.8401 N   0  0  0  0  0  0  0  0  0  0  0  0
    6.1215    0.6678   21.0962 C   0  0  0  0  0  0  0  0  0  0  0  0
    5.1457    1.4100   21.7333 C   0  0  0  0  0  0  0  0  0  0  0  0
    5.0539    1.5590   23.2294 C   0  0  0  0  0  0  0  0  0  0  0  0
    6.2413    0.5928   19.6852 C   0  0  0  0  0  0  0  0  0  0  0  0
    7.0771   -0.0133   18.8561 N   0  0  0  0  0  0  0  0  0  0  0  0
    6.6930    0.3448   17.5661 N   0  0  0  0  0  0  0  0  0  0  0  0
    5.6552    1.1310   17.6583 C   0  0  0  0  0  0  0  0  0  0  0  0
    5.3143    1.3230   18.9603 N   0  0  0  0  0  0  0  0  0  0  0  0
    4.3115    2.0551   19.5624 C   0  0  0  0  0  0  0  0  0  0  0  0
    4.2027    2.1061   20.8985 C   0  0  0  0  0  0  0  0  0  0  0  0
   14.4852    0.2820   22.5440 H   0  0  0  0  0  0  0  0  0  0  0  0
   13.1566    1.8152   23.9628 H   0  0  0  0  0  0  0  0  0  0  0  0
   10.9399   -1.8743   21.5338 H   0  0  0  0  0  0  0  0  0  0  0  0
   10.2728    0.1146   25.7990 H   0  0  0  0  0  0  0  0  0  0  0  0
    9.2326    1.5718   25.9443 H   0  0  0  0  0  0  0  0  0  0  0  0
    8.2372   -0.6550   25.0284 H   0  0  0  0  0  0  0  0  0  0  0  0
    7.8227    0.9050   24.2404 H   0  0  0  0  0  0  0  0  0  0  0  0
    8.9276   -1.4407   23.0467 H   0  0  0  0  0  0  0  0  0  0  0  0
    6.7673   -0.8460   22.3500 H   0  0  0  0  0  0  0  0  0  0  0  0
    5.9767    2.0213   23.6096 H   0  0  0  0  0  0  0  0  0  0  0  0
    4.1936    2.1961   23.4821 H   0  0  0  0  0  0  0  0  0  0  0  0
    4.9240    0.5681   23.6891 H   0  0  0  0  0  0  0  0  0  0  0  0
    5.1386    1.5683   16.8167 H   0  0  0  0  0  0  0  0  0  0  0  0
    3.6045    2.5945   18.9496 H   0  0  0  0  0  0  0  0  0  0  0  0
    3.4023    2.6732   21.3504 H   0  0  0  0  0  0  0  0  0  0  0  0
  1  2  1  0  0  0  0
  2  3  2  0  0  0  0
  2  5  1  0  0  0  0
  3  4  1  0  0  0  0
  4  7  2  0  0  0  0
  5  6  2  0  0  0  0
  6  7  1  0  0  0  0
  6 11  1  0  0  0  0
  7  8  1  0  0  0  0
  8  9  1  0  0  0  0
  9 10  1  0  0  0  0
 10 11  1  0  0  0  0
 11 12  1  0  0  0  0
 12 13  2  0  0  0  0
 12 14  1  0  0  0  0
 14 15  1  0  0  0  0
 15 16  2  0  0  0  0
 15 18  1  0  0  0  0
 16 17  1  0  0  0  0
 16 24  1  0  0  0  0
 18 19  2  0  0  0  0
 18 22  1  0  0  0  0
 19 20  1  0  0  0  0
 20 21  2  0  0  0  0
 21 22  1  0  0  0  0
 22 23  1  0  0  0  0
 23 24  2  0  0  0  0
  3 25  1  0  0  0  0
  4 26  1  0  0  0  0
  5 27  1  0  0  0  0
  9 28  1  0  0  0  0
  9 29  1  0  0  0  0
 10 30  1  0  0  0  0
 10 31  1  0  0  0  0
 11 32  1  0  0  0  0
 14 33  1  0  0  0  0
 17 34  1  0  0  0  0
 17 35  1  0  0  0  0
 17 36  1  0  0  0  0
 21 37  1  0  0  0  0
 23 38  1  0  0  0  0
 24 39  1  0  0  0  0
M  END
> <compound_name>
JAG-UCB-52b62a6f-11

> <provenance>
{"isomeric_smiles": "Cc1cc[n+]2cn[nH]c2c1NC(=O)[C@@H]3CCOc4c3cc(cc4)Cl", "inchi": "InChI=1S/C17H15ClN4O2/c1-10-4-6-22-9-19-21-16(22)15(10)20-17(23)12-5-7-24-14-3-2-11(18)8-13(12)14/h2-4,6,8-9,12H,5,7H2,1H3,(H,20,23)/p+1/t12-/m1/s1", "inchi_key": "AFDLQIMJQFTLQM-GFCCVEGCSA-O", "fixed_inchi": "InChI=1/C17H15ClN4O2/c1-10-4-6-22-9-19-21-16(22)15(10)20-17(23)12-5-7-24-14-3-2-11(18)8-13(12)14/h2-4,6,8-9,12H,5,7H2,1H3,(H,20,23)/p+1/t12-/m1/s1/fC17H16ClN4O2/h20-21H/q+1", "fixed_inchikey": "AFDLQIMJQFTLQM-XDIXCYLNNA-O"}

> <data_format>
sdf

$$$$
