LIG(A-305)
  -OEChem-06042511303D

 35 37  0     0  0  0  0  0  0999 V2000
    6.5385    0.6272   17.4092 N   0  0  0  0  0  0  0  0  0  0  0  0
    9.6326   -0.6446   23.4022 N   0  0  0  0  0  0  0  0  0  0  0  0
    5.4105    0.7492   19.9842 C   0  0  0  0  0  0  0  0  0  0  0  0
   12.9445    0.5435   23.9341 C   0  0  0  0  0  0  0  0  0  0  0  0
    9.3926    0.1364   24.5102 C   0  0  0  0  0  0  0  0  0  0  0  0
    4.8485    1.4322   18.9122 C   0  0  0  0  0  0  0  0  0  0  0  0
    8.2455   -0.3987   21.4172 C   0  0  0  0  0  0  0  0  0  0  0  0
    6.5435   -0.0387   19.7202 C   0  0  0  0  0  0  0  0  0  0  0  0
    7.0665   -0.0638   18.4252 C   0  0  0  0  0  0  0  0  0  0  0  0
   11.5806    0.2755   24.0532 C   0  0  0  0  0  0  0  0  0  0  0  0
   13.0746   -0.9195   22.0472 C   0  0  0  0  0  0  0  0  0  0  0  0
   10.5406    0.7095   24.9362 C   0  0  0  0  0  0  0  0  0  0  0  0
   13.6905   -0.0445   22.9291 C   0  0  0  0  0  0  0  0  0  0  0  0
   11.7206   -1.1966   22.1102 C   0  0  0  0  0  0  0  0  0  0  0  0
    4.8925    0.9582   21.3842 C   0  0  0  0  0  0  0  0  0  0  0  0
    7.1325   -0.7777   20.7672 N   0  0  0  0  0  0  0  0  0  0  0  0
    8.9055    0.6003   21.1292 O   0  0  0  0  0  0  0  0  0  0  0  0
    8.6086   -1.2916   22.5922 C   0  0  0  0  0  0  0  0  0  0  0  0
    5.4394    1.3502   17.6642 C   0  0  0  0  0  0  0  0  0  0  0  0
   10.9856   -0.5846   23.1152 C   0  0  0  0  0  0  0  0  0  0  0  0
   14.0396   -1.7325   20.8522 Cl  0  0  0  0  0  0  0  0  0  0  0  0
   13.4215    1.2154   24.6323 H   0  0  0  0  0  0  0  0  0  0  0  0
    8.4261    0.2719   24.9727 H   0  0  0  0  0  0  0  0  0  0  0  0
    3.9556    2.0234   19.0527 H   0  0  0  0  0  0  0  0  0  0  0  0
    7.9395   -0.6704   18.2352 H   0  0  0  0  0  0  0  0  0  0  0  0
   10.6520    1.3703   25.7831 H   0  0  0  0  0  0  0  0  0  0  0  0
   14.7433    0.1757   22.8320 H   0  0  0  0  0  0  0  0  0  0  0  0
   11.2527   -1.8651   21.4026 H   0  0  0  0  0  0  0  0  0  0  0  0
    4.0682    1.6863   21.3659 H   0  0  0  0  0  0  0  0  0  0  0  0
    4.5278    0.0017   21.7867 H   0  0  0  0  0  0  0  0  0  0  0  0
    5.7037    1.3390   22.0222 H   0  0  0  0  0  0  0  0  0  0  0  0
    6.6960   -1.6344   21.0419 H   0  0  0  0  0  0  0  0  0  0  0  0
    7.7138   -1.4688   23.2070 H   0  0  0  0  0  0  0  0  0  0  0  0
    8.9918   -2.2520   22.2170 H   0  0  0  0  0  0  0  0  0  0  0  0
    4.9901    1.8995   16.8501 H   0  0  0  0  0  0  0  0  0  0  0  0
  1  9  1  0  0  0  0
  1 19  2  0  0  0  0
  2  5  1  0  0  0  0
  2 18  1  0  0  0  0
  2 20  1  0  0  0  0
  3  6  2  0  0  0  0
  3  8  1  0  0  0  0
  3 15  1  0  0  0  0
  4 10  2  0  0  0  0
  4 13  1  0  0  0  0
  4 22  1  0  0  0  0
  5 12  2  0  0  0  0
  5 23  1  0  0  0  0
  6 19  1  0  0  0  0
  6 24  1  0  0  0  0
  7 16  1  0  0  0  0
  7 17  2  0  0  0  0
  7 18  1  0  0  0  0
  8  9  2  0  0  0  0
  8 16  1  0  0  0  0
  9 25  1  0  0  0  0
 10 12  1  0  0  0  0
 10 20  1  0  0  0  0
 11 13  2  0  0  0  0
 11 14  1  0  0  0  0
 11 21  1  0  0  0  0
 12 26  1  0  0  0  0
 13 27  1  0  0  0  0
 14 20  2  0  0  0  0
 14 28  1  0  0  0  0
 15 29  1  0  0  0  0
 15 30  1  0  0  0  0
 15 31  1  0  0  0  0
 16 32  1  0  0  0  0
 18 33  1  0  0  0  0
 18 34  1  0  0  0  0
 19 35  1  0  0  0  0
M  END
> <compound_name>
BAR-COM-0f94fc3d-41

> <provenance>
{"isomeric_smiles": "Cc1ccncc1NC(=O)Cn2ccc3c2cc(cc3)Cl", "inchi": "InChI=1S/C16H14ClN3O/c1-11-4-6-18-9-14(11)19-16(21)10-20-7-5-12-2-3-13(17)8-15(12)20/h2-9H,10H2,1H3,(H,19,21)", "inchi_key": "YPZKHKYPLKRQED-UHFFFAOYSA-N", "fixed_inchi": "InChI=1/C16H14ClN3O/c1-11-4-6-18-9-14(11)19-16(21)10-20-7-5-12-2-3-13(17)8-15(12)20/h2-9H,10H2,1H3,(H,19,21)/f/h19H", "fixed_inchikey": "YPZKHKYPLKRQED-LILDFLRNNA-N"}

> <data_format>
sdf

$$$$
