LIG(A-306)
  -OEChem-06042511383D

 39 42  0     1  0  0  0  0  0999 V2000
    9.1068    1.1276   21.0818 O   0  0  0  0  0  0  0  0  0  0  0  0
    8.6201    0.0522   21.4391 C   0  0  0  0  0  0  0  0  0  0  0  0
    9.2083   -0.7619   22.5939 C   0  0  2  0  0  0  0  0  0  0  0  0
    8.4046   -0.5737   23.8864 C   0  0  0  0  0  0  0  0  0  0  0  0
    8.4320    0.8780   24.3389 C   0  0  0  0  0  0  0  0  0  0  0  0
   10.0944    1.4408   24.7663 S   0  0  0  0  0  0  0  0  0  0  0  0
   10.6795   -0.4475   22.7849 C   0  0  0  0  0  0  0  0  0  0  0  0
   11.1303    0.5509   23.6578 C   0  0  0  0  0  0  0  0  0  0  0  0
   12.4874    0.8661   23.7369 C   0  0  0  0  0  0  0  0  0  0  0  0
   13.4046    0.1828   22.9592 C   0  0  0  0  0  0  0  0  0  0  0  0
   11.6227   -1.1418   22.0301 C   0  0  0  0  0  0  0  0  0  0  0  0
   12.9588   -0.8066   22.1133 C   0  0  0  0  0  0  0  0  0  0  0  0
   14.0938   -1.5943   21.0504 Cl  0  0  0  0  0  0  0  0  0  0  0  0
    7.5366   -0.5108   20.8481 N   0  0  0  0  0  0  0  0  0  0  0  0
    6.7625   -0.0006   19.7810 C   0  0  0  0  0  0  0  0  0  0  0  0
    5.6348    0.8258   20.0817 C   0  0  0  0  0  0  0  0  0  0  0  0
    5.1781    1.0860   21.3988 C   0  0  0  0  0  0  0  0  0  0  0  0
    4.1123    1.9134   21.6224 C   0  0  0  0  0  0  0  0  0  0  0  0
    3.4512    2.5166   20.5631 C   0  0  0  0  0  0  0  0  0  0  0  0
    3.8499    2.2945   19.2770 C   0  0  0  0  0  0  0  0  0  0  0  0
    4.9487    1.4450   19.0004 C   0  0  0  0  0  0  0  0  0  0  0  0
    5.4184    1.1909   17.6903 C   0  0  0  0  0  0  0  0  0  0  0  0
    6.4532    0.4144   17.4086 N   0  0  0  0  0  0  0  0  0  0  0  0
    7.0952   -0.1609   18.4329 C   0  0  0  0  0  0  0  0  0  0  0  0
    9.1325   -1.8235   22.3157 H   0  0  0  0  0  0  0  0  0  0  0  0
    7.3618   -0.8755   23.7086 H   0  0  0  0  0  0  0  0  0  0  0  0
    8.8394   -1.2048   24.6755 H   0  0  0  0  0  0  0  0  0  0  0  0
    8.0451    1.5082   23.5246 H   0  0  0  0  0  0  0  0  0  0  0  0
    7.7860    0.9838   25.2230 H   0  0  0  0  0  0  0  0  0  0  0  0
   12.8219    1.6447   24.4065 H   0  0  0  0  0  0  0  0  0  0  0  0
   14.4562    0.4226   23.0150 H   0  0  0  0  0  0  0  0  0  0  0  0
   11.3077   -1.9437   21.3789 H   0  0  0  0  0  0  0  0  0  0  0  0
    7.2498   -1.3968   21.2127 H   0  0  0  0  0  0  0  0  0  0  0  0
    5.6789    0.6244   22.2369 H   0  0  0  0  0  0  0  0  0  0  0  0
    3.7823    2.0988   22.6339 H   0  0  0  0  0  0  0  0  0  0  0  0
    2.6126    3.1686   20.7578 H   0  0  0  0  0  0  0  0  0  0  0  0
    3.3230    2.7705   18.4634 H   0  0  0  0  0  0  0  0  0  0  0  0
    4.8998    1.6602   16.8675 H   0  0  0  0  0  0  0  0  0  0  0  0
    7.9353   -0.7981   18.1996 H   0  0  0  0  0  0  0  0  0  0  0  0
  1  2  2  0  0  0  0
  2  3  1  0  0  0  0
  2 14  1  0  0  0  0
  3  4  1  0  0  0  0
  3  7  1  0  0  0  0
  3 25  1  0  0  0  0
  4  5  1  0  0  0  0
  4 26  1  0  0  0  0
  4 27  1  0  0  0  0
  5  6  1  0  0  0  0
  5 28  1  0  0  0  0
  5 29  1  0  0  0  0
  6  8  1  0  0  0  0
  7  8  2  0  0  0  0
  7 11  1  0  0  0  0
  8  9  1  0  0  0  0
  9 10  2  0  0  0  0
  9 30  1  0  0  0  0
 10 12  1  0  0  0  0
 10 31  1  0  0  0  0
 11 12  2  0  0  0  0
 11 32  1  0  0  0  0
 12 13  1  0  0  0  0
 14 15  1  0  0  0  0
 14 33  1  0  0  0  0
 15 16  2  0  0  0  0
 15 24  1  0  0  0  0
 16 17  1  0  0  0  0
 16 21  1  0  0  0  0
 17 18  2  0  0  0  0
 17 34  1  0  0  0  0
 18 19  1  0  0  0  0
 18 35  1  0  0  0  0
 19 20  2  0  0  0  0
 19 36  1  0  0  0  0
 20 21  1  0  0  0  0
 20 37  1  0  0  0  0
 21 22  2  0  0  0  0
 22 23  1  0  0  0  0
 22 38  1  0  0  0  0
 23 24  2  0  0  0  0
 24 39  1  0  0  0  0
M  END
> <compound_name>
MAT-POS-78e1d523-1

> <provenance>
{"isomeric_smiles": "c1ccc2c(c1)cncc2NC(=O)[C@@H]3CCSc4c3cc(cc4)Cl", "inchi": "InChI=1S/C19H15ClN2OS/c20-13-5-6-18-16(9-13)15(7-8-24-18)19(23)22-17-11-21-10-12-3-1-2-4-14(12)17/h1-6,9-11,15H,7-8H2,(H,22,23)/t15-/m1/s1", "inchi_key": "UTAUZKDGXZMBJU-OAHLLOKOSA-N", "fixed_inchi": "InChI=1/C19H15ClN2OS/c20-13-5-6-18-16(9-13)15(7-8-24-18)19(23)22-17-11-21-10-12-3-1-2-4-14(12)17/h1-6,9-11,15H,7-8H2,(H,22,23)/t15-/m1/s1/f/h22H", "fixed_inchikey": "UTAUZKDGXZMBJU-RYSKXMCPNA-N"}

> <data_format>
sdf

$$$$
